70
C70
C       -3.217096   -2.397554   -0.252643 
C       -2.438484   -2.641572   -1.447158 
C       -3.962981   -1.226825   -0.129289 
C       -2.438727   -1.714306   -2.476949 
C       -1.204302   -1.404891   -3.166837 
C        0.000000   -2.096259   -2.877473 
C        1.204302   -1.404891   -3.166837 
C       -3.216931   -0.981081    2.202260 
C       -2.438755   -2.193067    2.065206 
C       -3.963180   -0.502015    1.127081 
C       -2.438750   -2.885672    0.864942 
C       -1.204136   -3.445652    0.357410 
C        0.000001   -3.383952    1.104315 
C        1.204137   -3.445651    0.357410 
C        0.000000   -3.079153   -1.785402 
C       -1.204029   -3.294957   -1.067641 
C        1.204029   -3.294957   -1.067641 
C       -3.216785    1.791320    1.613657 
C       -2.438770    1.286871    2.724317 
C       -3.963049    0.916746    0.825900 
C       -2.438831   -0.068920    3.012119 
C       -1.204254   -0.725082    3.387633 
C        0.000000    0.004182    3.559002 
C        1.204255   -0.725081    3.387633 
C        0.000000   -2.649186    2.376529 
C       -1.204229   -2.033969    2.804073 
C        1.204229   -2.033969    2.804073 
C       -3.216881    2.088178   -1.204842 
C       -2.438751    2.988544   -0.382076 
C       -3.963076    1.068717   -0.616447 
C       -2.438605    2.843191    0.996144 
C       -1.203965    2.997531    1.735835 
C        0.000000    3.387063    1.095393 
C        1.203965    2.997531    1.735834 
C        0.000000    1.441059    3.253292 
C       -1.203917    2.038163    2.800400 
C        1.203917    2.038162    2.800401 
C       -3.217528   -0.500774   -2.358624 
C       -2.438812    0.559953   -2.959931 
C       -3.963243   -0.256146   -1.206855 
C       -2.438445    1.825698   -2.395637 
C       -1.204076    2.577373   -2.314405 
C        0.000000    2.088141   -2.882088 
C        1.204076    2.577372   -2.314405 
C        0.000000    3.540875   -0.365716 
C       -1.204138    3.293964   -1.073380 
C        1.204138    3.293964   -1.073379 
C        0.000000    0.745924   -3.479156 
C       -1.204125   -0.003117   -3.463612 
C        1.204125   -0.003116   -3.463611 
C        3.216880    2.088178   -1.204842 
C        2.438445    1.825698   -2.395637 
C        2.438812    0.559952   -2.959932 
C        3.963075    1.068717   -0.616447 
C        3.216784    1.791320    1.613657 
C        2.438604    2.843191    0.996144 
C        2.438750    2.988545   -0.382077 
C        3.963048    0.916747    0.825900 
C        3.216931   -0.981082    2.202261 
C        2.438832   -0.068920    3.012119 
C        2.438770    1.286872    2.724318 
C        3.963180   -0.502014    1.127081 
C        3.217096   -2.397554   -0.252644 
C        2.438750   -2.885672    0.864942 
C        2.438755   -2.193066    2.065207 
C        3.962981   -1.226824   -0.129290 
C        3.217528   -0.500774   -2.358624 
C        2.438727   -1.714306   -2.476949 
C        2.438484   -2.641573   -1.447158 
C        3.963242   -0.256146   -1.206854 
