96
C96
C        1.267490    4.378765    0.560997 
C        0.183083    4.240799    1.434923 
C       -1.096376    4.446887    0.850712 
C       -2.291507    3.912755    1.439612 
C       -2.191921    3.163824    2.581992 
C        2.537549    3.743883    0.839770 
C        3.722687    1.927342    1.826052 
C        2.674140    2.858617    1.938805 
C        1.510341    2.559413    2.779753 
C        0.309433    3.343255    2.584938 
C       -0.888381    2.864586    3.141742 
C       -4.410815    0.303802    1.802981 
C       -4.045585    1.668951    1.821193 
C       -3.063058    2.027812    2.783954 
C       -2.310999    1.044340    3.477220 
C        0.973442   -1.562682    3.695093 
C       -0.129536   -0.722866    3.782661 
C       -1.426519   -1.267742    3.417048 
C       -2.539602   -0.337403    3.300246 
C       -3.674386   -0.672636    2.534981 
C        3.674386    0.672636    2.534981 
C        2.539602    0.337403    3.300246 
C        1.426519    1.267742    3.417048 
C        0.129536    0.722866    3.782661 
C       -0.973442    1.562682    3.695093 
C        2.310999   -1.044340    3.477220 
C       -4.097209    2.422038    0.567112 
C       -3.209524    3.511853    0.390754 
C       -4.867550   -0.346565    0.592989 
C       -4.867550    0.346565   -0.592989 
C       -4.452739    1.732375   -0.615610 
C       -4.452739   -1.732375    0.615610 
C       -4.097209   -2.422038   -0.567112 
C       -3.209524   -3.511853   -0.390754 
C        0.888381   -2.864586    3.141742 
C       -0.309433   -3.343255    2.584938 
C       -1.510341   -2.559413    2.779753 
C       -2.674140   -2.858617    1.938805 
C       -3.722687   -1.927342    1.826052 
C       -2.537549   -3.743883    0.839770 
C       -3.722687    1.927342   -1.826052 
C       -2.674140    2.858617   -1.938805 
C       -2.537549    3.743883   -0.839770 
C       -1.510341    2.559413   -2.779753 
C       -0.309433    3.343255   -2.584938 
C        0.888381    2.864586   -3.141742 
C       -3.674386    0.672636   -2.534981 
C       -2.310999   -1.044340   -3.477220 
C       -2.539602    0.337403   -3.300246 
C       -1.426519    1.267742   -3.417048 
C       -0.129536    0.722866   -3.782661 
C        0.973442    1.562682   -3.695093 
C       -4.045585   -1.668951   -1.821193 
C       -4.410815   -0.303802   -1.802981 
C       -3.063058   -2.027812   -2.783954 
C       -0.183083    4.240799   -1.434923 
C       -1.267490    4.378765   -0.560997 
C        2.191921    3.163824   -2.581992 
C        2.291507    3.912755   -1.439612 
C        1.096376    4.446887   -0.850712 
C        3.063058    2.027812   -2.783954 
C        4.045585    1.668951   -1.821193 
C        4.410815    0.303802   -1.802981 
C       -0.973442   -1.562682   -3.695093 
C        0.129536   -0.722866   -3.782661 
C        1.426519   -1.267742   -3.417048 
C        2.539602   -0.337403   -3.300246 
C        2.310999    1.044340   -3.477220 
C        3.674386   -0.672636   -2.534981 
C        4.097209    2.422038   -0.567112 
C        3.209524    3.511853   -0.390754 
C        4.452739    1.732375    0.615610 
C        4.452739   -1.732375   -0.615610 
C        4.867550   -0.346565   -0.592989 
C        4.867550    0.346565    0.592989 
C        3.209524   -3.511853    0.390754 
C        4.097209   -2.422038    0.567112 
C       -0.888381   -2.864586   -3.141742 
C        0.309433   -3.343255   -2.584938 
C        1.510341   -2.559413   -2.779753 
C        2.537549   -3.743883   -0.839770 
C        2.674140   -2.858617   -1.938805 
C        3.722687   -1.927342   -1.826052 
C       -1.096376   -4.446887   -0.850712 
C       -2.291507   -3.912755   -1.439612 
C       -2.191921   -3.163824   -2.581992 
C        1.267490   -4.378765   -0.560997 
C        0.183083   -4.240799   -1.434923 
C        2.191921   -3.163824    2.581992 
C        2.291507   -3.912755    1.439612 
C        1.096376   -4.446887    0.850712 
C       -0.183083   -4.240799    1.434923 
C       -1.267490   -4.378765    0.560997 
C        4.410815   -0.303802    1.802981 
C        4.045585   -1.668951    1.821193 
C        3.063058   -2.027812    2.783954 
