336
C294
C         27.40056      -13.58318        0.00000
C         29.53098      -12.35318        0.00000
C         31.66141      -11.12318        0.00000
C         33.79183       -9.89318        0.00000
C         35.92225       -8.66318        0.00000
C         38.05267       -7.43318        0.00000
C         40.18309       -6.20318        0.00000
C         25.27014      -12.35318        0.00000
C         27.40056      -11.12318        0.00000
C         29.53098       -9.89318        0.00000
C         31.66141       -8.66318        0.00000
C         33.79183       -7.43318        0.00000
C         35.92225       -6.20318        0.00000
C         38.05267       -4.97318        0.00000
C         40.18309       -3.74318        0.00000
C         23.13972      -11.12318        0.00000
C         25.27014       -9.89318        0.00000
C         27.40056       -8.66318        0.00000
C         29.53098       -7.43318        0.00000
C         31.66141       -6.20318        0.00000
C         33.79183       -4.97318        0.00000
C         35.92225       -3.74318        0.00000
C         38.05267       -2.51318        0.00000
C         40.18309       -1.28318        0.00000
C         21.00930       -9.89318        0.00000
C         23.13972       -8.66318        0.00000
C         25.27014       -7.43318        0.00000
C         27.40056       -6.20318        0.00000
C         29.53098       -4.97318        0.00000
C         31.66141       -3.74318        0.00000
C         33.79183       -2.51318        0.00000
C         35.92225       -1.28318        0.00000
C         38.05267       -0.05319        0.00000
C         40.18309        1.17681        0.00000
C         18.87888       -8.66318        0.00000
C         21.00930       -7.43318        0.00000
C         23.13972       -6.20318        0.00000
C         25.27014       -4.97318        0.00000
C         27.40056       -3.74318        0.00000
C         29.53098       -2.51318        0.00000
C         31.66141       -1.28318        0.00000
C         33.79183       -0.05319        0.00000
C         35.92225        1.17681        0.00000
C         38.05267        2.40681        0.00000
C         40.18309        3.63681        0.00000
C         16.74846       -7.43318        0.00000
C         18.87888       -6.20318        0.00000
C         21.00930       -4.97318        0.00000
C         23.13972       -3.74318        0.00000
C         25.27014       -2.51318        0.00000
C         27.40056       -1.28318        0.00000
C         29.53098       -0.05319        0.00000
C         31.66141        1.17681        0.00000
C         33.79183        2.40681        0.00000
C         35.92225        3.63681        0.00000
C         38.05267        4.86681        0.00000
C         40.18309        6.09681        0.00000
C         14.61803       -6.20318        0.00000
C         16.74846       -4.97318        0.00000
C         18.87888       -3.74318        0.00000
C         21.00930       -2.51318        0.00000
C         23.13972       -1.28318        0.00000
C         25.27014       -0.05319        0.00000
C         27.40056        1.17681        0.00000
C         29.53098        2.40681        0.00000
C         31.66141        3.63681        0.00000
C         33.79183        4.86681        0.00000
C         35.92225        6.09681        0.00000
C         38.05267        7.32681        0.00000
C         40.18309        8.55681        0.00000
C         12.48761       -4.97318        0.00000
C         14.61803       -3.74318        0.00000
C         16.74846       -2.51318        0.00000
C         18.87888       -1.28318        0.00000
C         21.00930       -0.05319        0.00000
C         23.13972        1.17681        0.00000
C         25.27014        2.40681        0.00000
C         27.40056        3.63681        0.00000
C         29.53098        4.86681        0.00000
C         31.66141        6.09681        0.00000
C         33.79183        7.32681        0.00000
C         35.92225        8.55681        0.00000
C         38.05267        9.78681        0.00000
C         40.18309       11.01681        0.00000
C         12.48761       -2.51318        0.00000
C         14.61803       -1.28318        0.00000
C         16.74846       -0.05319        0.00000
C         18.87888        1.17681        0.00000
C         21.00930        2.40681        0.00000
C         23.13972        3.63681        0.00000
C         25.27014        4.86681        0.00000
C         27.40056        6.09681        0.00000
C         29.53098        7.32681        0.00000
C         31.66141        8.55681        0.00000
C         33.79183        9.78681        0.00000
C         35.92225       11.01681        0.00000
C         38.05267       12.24681        0.00000
C         12.48761       -0.05319        0.00000
C         14.61803        1.17681        0.00000
C         16.74846        2.40681        0.00000
C         18.87888        3.63681        0.00000
C         21.00930        4.86681        0.00000
C         23.13972        6.09681        0.00000
C         25.27014        7.32681        0.00000
C         27.40056        8.55681        0.00000
C         29.53098        9.78681        0.00000
C         31.66141       11.01681        0.00000
C         33.79183       12.24681        0.00000
C         35.92225       13.47681        0.00000
C         12.48761        2.40681        0.00000
C         14.61803        3.63681        0.00000
C         16.74846        4.86681        0.00000
C         18.87888        6.09681        0.00000
C         21.00930        7.32681        0.00000
C         23.13972        8.55681        0.00000
C         25.27014        9.78681        0.00000
C         27.40056       11.01681        0.00000
C         29.53098       12.24681        0.00000
C         31.66141       13.47681        0.00000
C         33.79183       14.70681        0.00000
C         12.48761        4.86681        0.00000
C         14.61803        6.09681        0.00000
C         16.74846        7.32681        0.00000
C         18.87888        8.55681        0.00000
C         21.00930        9.78681        0.00000
C         23.13972       11.01681        0.00000
C         25.27014       12.24681        0.00000
C         27.40056       13.47681        0.00000
C         29.53098       14.70681        0.00000
C         31.66141       15.93681        0.00000
C         12.48761        7.32681        0.00000
C         14.61803        8.55681        0.00000
C         16.74846        9.78681        0.00000
C         18.87888       11.01681        0.00000
C         21.00930       12.24681        0.00000
C         23.13972       13.47681        0.00000
C         25.27014       14.70681        0.00000
C         27.40056       15.93681        0.00000
C         29.53098       17.16681        0.00000
C         12.48761        9.78681        0.00000
C         14.61803       11.01681        0.00000
C         16.74846       12.24681        0.00000
C         18.87888       13.47681        0.00000
C         21.00930       14.70681        0.00000
C         23.13972       15.93681        0.00000
C         25.27014       17.16681        0.00000
C         27.40056       18.39681        0.00000
C         25.98028      -13.58318        0.00000
C         28.11070      -12.35318        0.00000
C         30.24113      -11.12318        0.00000
C         32.37155       -9.89318        0.00000
C         34.50197       -8.66318        0.00000
C         36.63239       -7.43318        0.00000
C         38.76281       -6.20318        0.00000
C         40.89324       -4.97318        0.00000
C         23.84986      -12.35318        0.00000
C         25.98028      -11.12318        0.00000
C         28.11070       -9.89318        0.00000
C         30.24113       -8.66318        0.00000
C         32.37155       -7.43318        0.00000
C         34.50197       -6.20318        0.00000
C         36.63239       -4.97318        0.00000
C         38.76281       -3.74318        0.00000
C         40.89324       -2.51318        0.00000
C         21.71944      -11.12318        0.00000
C         23.84986       -9.89318        0.00000
C         25.98028       -8.66318        0.00000
C         28.11070       -7.43318        0.00000
C         30.24113       -6.20318        0.00000
C         32.37155       -4.97318        0.00000
C         34.50197       -3.74318        0.00000
C         36.63239       -2.51318        0.00000
C         38.76281       -1.28318        0.00000
C         40.89324       -0.05319        0.00000
C         19.58902       -9.89318        0.00000
C         21.71944       -8.66318        0.00000
C         23.84986       -7.43318        0.00000
C         25.98028       -6.20318        0.00000
C         28.11070       -4.97318        0.00000
C         30.24113       -3.74318        0.00000
C         32.37155       -2.51318        0.00000
C         34.50197       -1.28318        0.00000
C         36.63239       -0.05319        0.00000
C         38.76281        1.17681        0.00000
C         40.89324        2.40681        0.00000
C         17.45860       -8.66318        0.00000
C         19.58902       -7.43318        0.00000
C         21.71944       -6.20318        0.00000
C         23.84986       -4.97318        0.00000
C         25.98028       -3.74318        0.00000
C         28.11070       -2.51318        0.00000
C         30.24113       -1.28318        0.00000
C         32.37155       -0.05319        0.00000
C         34.50197        1.17681        0.00000
C         36.63239        2.40681        0.00000
C         38.76281        3.63681        0.00000
C         40.89324        4.86681        0.00000
C         15.32818       -7.43318        0.00000
C         17.45860       -6.20318        0.00000
C         19.58902       -4.97318        0.00000
C         21.71944       -3.74318        0.00000
C         23.84986       -2.51318        0.00000
C         25.98028       -1.28318        0.00000
C         28.11070       -0.05319        0.00000
C         30.24113        1.17681        0.00000
C         32.37155        2.40681        0.00000
C         34.50197        3.63681        0.00000
C         36.63239        4.86681        0.00000
C         38.76281        6.09681        0.00000
C         40.89324        7.32681        0.00000
C         13.19775       -6.20318        0.00000
C         15.32818       -4.97318        0.00000
C         17.45860       -3.74318        0.00000
C         19.58902       -2.51318        0.00000
C         21.71944       -1.28318        0.00000
C         23.84986       -0.05319        0.00000
C         25.98028        1.17681        0.00000
C         28.11070        2.40681        0.00000
C         30.24113        3.63681        0.00000
C         32.37155        4.86681        0.00000
C         34.50197        6.09681        0.00000
C         36.63239        7.32681        0.00000
C         38.76281        8.55681        0.00000
C         40.89324        9.78681        0.00000
C         13.19775       -3.74318        0.00000
C         15.32818       -2.51318        0.00000
C         17.45860       -1.28318        0.00000
C         19.58902       -0.05319        0.00000
C         21.71944        1.17681        0.00000
C         23.84986        2.40681        0.00000
C         25.98028        3.63681        0.00000
C         28.11070        4.86681        0.00000
C         30.24113        6.09681        0.00000
C         32.37155        7.32681        0.00000
C         34.50197        8.55681        0.00000
C         36.63239        9.78681        0.00000
C         38.76281       11.01681        0.00000
C         13.19775       -1.28318        0.00000
C         15.32818       -0.05319        0.00000
C         17.45860        1.17681        0.00000
C         19.58902        2.40681        0.00000
C         21.71944        3.63681        0.00000
C         23.84986        4.86681        0.00000
C         25.98028        6.09681        0.00000
C         28.11070        7.32681        0.00000
C         30.24113        8.55681        0.00000
C         32.37155        9.78681        0.00000
C         34.50197       11.01681        0.00000
C         36.63239       12.24681        0.00000
C         13.19775        1.17681        0.00000
C         15.32818        2.40681        0.00000
C         17.45860        3.63681        0.00000
C         19.58902        4.86681        0.00000
C         21.71944        6.09681        0.00000
C         23.84986        7.32681        0.00000
C         25.98028        8.55681        0.00000
C         28.11070        9.78681        0.00000
C         30.24113       11.01681        0.00000
C         32.37155       12.24681        0.00000
C         34.50197       13.47681        0.00000
C         13.19775        3.63681        0.00000
C         15.32818        4.86681        0.00000
C         17.45860        6.09681        0.00000
C         19.58902        7.32681        0.00000
C         21.71944        8.55681        0.00000
C         23.84986        9.78681        0.00000
C         25.98028       11.01681        0.00000
C         28.11070       12.24681        0.00000
C         30.24113       13.47681        0.00000
C         32.37155       14.70681        0.00000
C         13.19775        6.09681        0.00000
C         15.32818        7.32681        0.00000
C         17.45860        8.55681        0.00000
C         19.58902        9.78681        0.00000
C         21.71944       11.01681        0.00000
C         23.84986       12.24681        0.00000
C         25.98028       13.47681        0.00000
C         28.11070       14.70681        0.00000
C         30.24113       15.93681        0.00000
C         13.19775        8.55681        0.00000
C         15.32818        9.78681        0.00000
C         17.45860       11.01681        0.00000
C         19.58902       12.24681        0.00000
C         21.71944       13.47681        0.00000
C         23.84986       14.70681        0.00000
C         25.98028       15.93681        0.00000
C         28.11070       17.16681        0.00000
C         13.19775       11.01681        0.00000
C         15.32818       12.24681        0.00000
C         17.45860       13.47681        0.00000
C         19.58902       14.70681        0.00000
C         21.71944       15.93681        0.00000
C         23.84986       17.16681        0.00000
C         25.98028       18.39681        0.00000
H         27.97056      -14.57045        0.00000
H         30.10099      -13.34045        0.00000
H         32.23141      -12.11045        0.00000
H         34.36183      -10.88045        0.00000
H         36.49225       -9.65045        0.00000
H         38.62267       -8.42045        0.00000
H         40.75309       -7.19045        0.00000
H         40.75309       12.00408        0.00000
H         38.62267       13.23408        0.00000
H         36.49225       14.46408        0.00000
H         34.36183       15.69408        0.00000
H         32.23141       16.92408        0.00000
H         30.10099       18.15408        0.00000
H         27.97056       19.38407        0.00000
H         11.34761       -4.97318        0.00000
H         11.34761       -2.51318        0.00000
H         11.34761       -0.05319        0.00000
H         11.34761        2.40681        0.00000
H         11.34761        4.86681        0.00000
H         11.34761        7.32681        0.00000
H         11.34761        9.78681        0.00000
H         25.41028      -14.57045        0.00000
H         42.03323       -4.97318        0.00000
H         23.27986      -13.34045        0.00000
H         42.03323       -2.51318        0.00000
H         21.14944      -12.11045        0.00000
H         42.03323       -0.05319        0.00000
H         19.01902      -10.88045        0.00000
H         42.03323        2.40681        0.00000
H         16.88860       -9.65045        0.00000
H         42.03323        4.86681        0.00000
H         14.75817       -8.42045        0.00000
H         42.03323        7.32681        0.00000
H         12.62775       -7.19045        0.00000
H         42.03323        9.78681        0.00000
H         12.62775       12.00408        0.00000
H         14.75817       13.23408        0.00000
H         16.88860       14.46408        0.00000
H         19.01902       15.69408        0.00000
H         21.14944       16.92408        0.00000
H         23.27986       18.15408        0.00000
H         25.41028       19.38407        0.00000
