12

C      -0.000000017032835      1.388085673656315     -0.000000000814944
C       1.201998045086395      0.693958020815626      0.000220927560804
C       1.201998024713714     -0.693958056962583     -0.000220936801270
C       0.000000005481223     -1.388085670745931      0.000000000074451
C      -1.201997984434012     -0.693958015867975      0.000220927282498
C      -1.201998020231724      0.693958008999471     -0.000220932181037
H       0.000000001200932      2.470458911604946     -0.000000000081593
H       2.139303942693979      1.235306694894680      0.000035806447499
H       2.139303945007734     -1.235306687254924     -0.000035797846124
H       0.000000003436245     -2.470458845597459      0.000000000565923
H      -2.139304005107144     -1.235306721524685      0.000035806095696
H      -2.139303941558930      1.235306685974356     -0.000035800299429
