C2H2BrCl
 OpenBabel01061902183D

  6  5  0  0  0  0  0  0  0  0999 V2000
   -1.8293   -1.2052   -0.0002 Br  0  0  0  0  0  0  0  0  0  0  0  0
   -0.0625   -0.5310   -0.0022 C   0  0  0  0  0  0  0  0  0  0  0  0
    0.1455    0.7653    0.0002 C   0  0  0  0  0  0  0  0  0  0  0  0
    1.2844   -1.6263   -0.0000 Cl  0  0  0  0  0  0  0  0  0  0  0  0
   -0.6925    1.4467    0.0033 H   0  0  0  0  0  0  0  0  0  0  0  0
    1.1545    1.1503   -0.0010 H   0  0  0  0  0  0  0  0  0  0  0  0
  1  2  1  0  0  0  0
  2  3  2  0  0  0  0
  2  4  1  0  0  0  0
  3  5  1  0  0  0  0
  3  6  1  0  0  0  0
M  END
