C12H6Cl4
 OpenBabel01061903563D

 22 23  0  0  0  0  0  0  0  0999 V2000
   -0.5814   -1.9209    1.9154 Cl  0  0  0  0  0  0  0  0  0  0  0  0
   -1.4428   -0.8529    0.8518 C   0  0  0  0  0  0  0  0  0  0  0  0
   -0.7417    0.0003    0.0003 C   0  0  0  0  0  0  0  0  0  0  0  0
   -1.4407    0.8549   -0.8514 C   0  0  0  0  0  0  0  0  0  0  0  0
   -2.8222    0.8517   -0.8470 C   0  0  0  0  0  0  0  0  0  0  0  0
   -3.5119    0.0031   -0.0001 C   0  0  0  0  0  0  0  0  0  0  0  0
   -2.8242   -0.8506    0.8432 C   0  0  0  0  0  0  0  0  0  0  0  0
   -0.5768    1.9211   -1.9147 Cl  0  0  0  0  0  0  0  0  0  0  0  0
    0.7417   -0.0009    0.0009 C   0  0  0  0  0  0  0  0  0  0  0  0
    1.4414   -0.8533   -0.8525 C   0  0  0  0  0  0  0  0  0  0  0  0
    2.8229   -0.8494   -0.8477 C   0  0  0  0  0  0  0  0  0  0  0  0
    3.5119   -0.0025    0.0014 C   0  0  0  0  0  0  0  0  0  0  0  0
    2.8235    0.8449    0.8505 C   0  0  0  0  0  0  0  0  0  0  0  0
    1.4421    0.8544    0.8508 C   0  0  0  0  0  0  0  0  0  0  0  0
    0.5799    1.9191    1.9169 Cl  0  0  0  0  0  0  0  0  0  0  0  0
    0.5784   -1.9175   -1.9185 Cl  0  0  0  0  0  0  0  0  0  0  0  0
   -3.3647    1.5133   -1.5060 H   0  0  0  0  0  0  0  0  0  0  0  0
   -4.5919    0.0042   -0.0003 H   0  0  0  0  0  0  0  0  0  0  0  0
   -3.3683   -1.5109    1.5022 H   0  0  0  0  0  0  0  0  0  0  0  0
    3.3659   -1.5093   -1.5079 H   0  0  0  0  0  0  0  0  0  0  0  0
    4.5919   -0.0031    0.0015 H   0  0  0  0  0  0  0  0  0  0  0  0
    3.3671    1.5037    1.5114 H   0  0  0  0  0  0  0  0  0  0  0  0
  1  2  1  0  0  0  0
  2  3  2  0  0  0  0
  2  7  1  0  0  0  0
  3  4  1  0  0  0  0
  3  9  1  0  0  0  0
  4  5  2  0  0  0  0
  4  8  1  0  0  0  0
  5  6  1  0  0  0  0
  5 17  1  0  0  0  0
  6  7  2  0  0  0  0
  6 18  1  0  0  0  0
  7 19  1  0  0  0  0
  9 10  2  0  0  0  0
  9 14  1  0  0  0  0
 10 11  1  0  0  0  0
 10 16  1  0  0  0  0
 11 12  2  0  0  0  0
 11 20  1  0  0  0  0
 12 13  1  0  0  0  0
 12 21  1  0  0  0  0
 13 14  2  0  0  0  0
 13 22  1  0  0  0  0
 14 15  1  0  0  0  0
M  END
