C12H4Cl4O2
 OpenBabel01061903563D

 22 24  0  0  0  0  0  0  0  0999 V2000
   -5.0800    1.5587   -0.0012 Cl  0  0  0  0  0  0  0  0  0  0  0  0
   -3.5757    0.6921   -0.0012 C   0  0  0  0  0  0  0  0  0  0  0  0
   -2.3784    1.3864   -0.0002 C   0  0  0  0  0  0  0  0  0  0  0  0
   -1.1780    0.6957   -0.0002 C   0  0  0  0  0  0  0  0  0  0  0  0
   -1.1780   -0.6957   -0.0012 C   0  0  0  0  0  0  0  0  0  0  0  0
   -0.0000   -1.3762   -0.0017 O   0  0  0  0  0  0  0  0  0  0  0  0
    1.1780   -0.6957   -0.0005 C   0  0  0  0  0  0  0  0  0  0  0  0
    1.1780    0.6957    0.0005 C   0  0  0  0  0  0  0  0  0  0  0  0
   -0.0000    1.3762    0.0012 O   0  0  0  0  0  0  0  0  0  0  0  0
    2.3784    1.3864    0.0013 C   0  0  0  0  0  0  0  0  0  0  0  0
    3.5758    0.6921    0.0011 C   0  0  0  0  0  0  0  0  0  0  0  0
    3.5757   -0.6921    0.0001 C   0  0  0  0  0  0  0  0  0  0  0  0
    2.3784   -1.3864   -0.0007 C   0  0  0  0  0  0  0  0  0  0  0  0
    5.0800   -1.5587   -0.0002 Cl  0  0  0  0  0  0  0  0  0  0  0  0
    5.0800    1.5587    0.0015 Cl  0  0  0  0  0  0  0  0  0  0  0  0
   -2.3784   -1.3864   -0.0022 C   0  0  0  0  0  0  0  0  0  0  0  0
   -3.5757   -0.6921    0.0035 C   0  0  0  0  0  0  0  0  0  0  0  0
   -5.0800   -1.5587    0.0029 Cl  0  0  0  0  0  0  0  0  0  0  0  0
   -2.3802    2.4664    0.0002 H   0  0  0  0  0  0  0  0  0  0  0  0
    2.3802    2.4664    0.0017 H   0  0  0  0  0  0  0  0  0  0  0  0
    2.3802   -2.4664   -0.0015 H   0  0  0  0  0  0  0  0  0  0  0  0
   -2.3802   -2.4664   -0.0034 H   0  0  0  0  0  0  0  0  0  0  0  0
  1  2  1  0  0  0  0
  2  3  2  0  0  0  0
  2 17  1  0  0  0  0
  3  4  1  0  0  0  0
  3 19  1  0  0  0  0
  4  5  2  0  0  0  0
  4  9  1  0  0  0  0
  5  6  1  0  0  0  0
  5 16  1  0  0  0  0
  6  7  1  0  0  0  0
  7  8  2  0  0  0  0
  7 13  1  0  0  0  0
  8  9  1  0  0  0  0
  8 10  1  0  0  0  0
 10 11  2  0  0  0  0
 10 20  1  0  0  0  0
 11 12  1  0  0  0  0
 11 15  1  0  0  0  0
 12 13  2  0  0  0  0
 12 14  1  0  0  0  0
 13 21  1  0  0  0  0
 16 17  2  0  0  0  0
 16 22  1  0  0  0  0
 17 18  1  0  0  0  0
M  END
