C8H6Cl2O3
 OpenBabel01061902393D

 19 19  0  0  0  0  0  0  0  0999 V2000
   -0.6532   -3.1420    0.0010 Cl  0  0  0  0  0  0  0  0  0  0  0  0
   -1.2639   -1.5169    0.0011 C   0  0  0  0  0  0  0  0  0  0  0  0
   -0.3833   -0.4439    0.0009 C   0  0  0  0  0  0  0  0  0  0  0  0
    0.9582   -0.6642    0.0007 O   0  0  0  0  0  0  0  0  0  0  0  0
    1.8047    0.4871    0.0005 C   0  0  0  0  0  0  0  0  0  0  0  0
    3.2469    0.0501    0.0003 C   0  0  0  0  0  0  0  0  0  0  0  0
    3.5217   -1.1265    0.0003 O   0  0  0  0  0  0  0  0  0  0  0  0
    4.2263    0.9680    0.0001 O   0  0  0  0  0  0  0  0  0  0  0  0
   -0.8740    0.8533    0.0005 C   0  0  0  0  0  0  0  0  0  0  0  0
   -2.2376    1.0754    0.0002 C   0  0  0  0  0  0  0  0  0  0  0  0
   -3.1143    0.0048    0.0008 C   0  0  0  0  0  0  0  0  0  0  0  0
   -2.6277   -1.2903   -0.0045 C   0  0  0  0  0  0  0  0  0  0  0  0
   -4.8272    0.2872    0.0011 Cl  0  0  0  0  0  0  0  0  0  0  0  0
    1.6058    1.0841   -0.8894 H   0  0  0  0  0  0  0  0  0  0  0  0
    1.6061    1.0842    0.8905 H   0  0  0  0  0  0  0  0  0  0  0  0
    5.1358    0.6396   -0.0000 H   0  0  0  0  0  0  0  0  0  0  0  0
   -0.1905    1.6895    0.0007 H   0  0  0  0  0  0  0  0  0  0  0  0
   -2.6197    2.0856   -0.0002 H   0  0  0  0  0  0  0  0  0  0  0  0
   -3.3135   -2.1246   -0.0040 H   0  0  0  0  0  0  0  0  0  0  0  0
  1  2  1  0  0  0  0
  2  3  2  0  0  0  0
  2 12  1  0  0  0  0
  3  4  1  0  0  0  0
  3  9  1  0  0  0  0
  4  5  1  0  0  0  0
  5  6  1  0  0  0  0
  5 14  1  0  0  0  0
  5 15  1  0  0  0  0
  6  7  2  0  0  0  0
  6  8  1  0  0  0  0
  8 16  1  0  0  0  0
  9 10  2  0  0  0  0
  9 17  1  0  0  0  0
 10 11  1  0  0  0  0
 10 18  1  0  0  0  0
 11 12  2  0  0  0  0
 11 13  1  0  0  0  0
 12 19  1  0  0  0  0
M  END
