C15H13NO
 OpenBabel01061902053D

 30 32  0  0  0  0  0  0  0  0999 V2000
   -4.1900    0.2439    0.2157 C   0  0  0  0  0  0  0  0  0  0  0  0
   -5.6547   -0.0691    0.0497 C   0  0  0  0  0  0  0  0  0  0  0  0
   -3.8472    1.2477    0.8039 O   0  0  0  0  0  0  0  0  0  0  0  0
   -3.2608   -0.5945   -0.2845 N   0  0  0  0  0  0  0  0  0  0  0  0
   -1.9063   -0.2523   -0.2258 C   0  0  0  0  0  0  0  0  0  0  0  0
   -0.9449   -1.2431   -0.0649 C   0  0  0  0  0  0  0  0  0  0  0  0
    0.3893   -0.9050   -0.0070 C   0  0  0  0  0  0  0  0  0  0  0  0
    1.6377   -1.7368    0.1584 C   0  0  0  0  0  0  0  0  0  0  0  0
    2.7915   -0.7644    0.1431 C   0  0  0  0  0  0  0  0  0  0  0  0
    4.1539   -0.9430    0.2536 C   0  0  0  0  0  0  0  0  0  0  0  0
    5.0020    0.1497    0.2067 C   0  0  0  0  0  0  0  0  0  0  0  0
    4.4850    1.4227    0.0489 C   0  0  0  0  0  0  0  0  0  0  0  0
    3.1228    1.6109   -0.0626 C   0  0  0  0  0  0  0  0  0  0  0  0
    2.2613    0.5133   -0.0166 C   0  0  0  0  0  0  0  0  0  0  0  0
    0.7830    0.4271   -0.1090 C   0  0  0  0  0  0  0  0  0  0  0  0
   -0.1867    1.4200   -0.2689 C   0  0  0  0  0  0  0  0  0  0  0  0
   -1.5197    1.0785   -0.3339 C   0  0  0  0  0  0  0  0  0  0  0  0
   -6.2492    0.7143    0.5197 H   0  0  0  0  0  0  0  0  0  0  0  0
   -5.8970   -0.1216   -1.0118 H   0  0  0  0  0  0  0  0  0  0  0  0
   -5.8774   -1.0264    0.5210 H   0  0  0  0  0  0  0  0  0  0  0  0
   -3.5317   -1.4352   -0.6853 H   0  0  0  0  0  0  0  0  0  0  0  0
   -1.2438   -2.2778    0.0151 H   0  0  0  0  0  0  0  0  0  0  0  0
    1.6096   -2.2709    1.1082 H   0  0  0  0  0  0  0  0  0  0  0  0
    1.7306   -2.4425   -0.6670 H   0  0  0  0  0  0  0  0  0  0  0  0
    4.5597   -1.9362    0.3773 H   0  0  0  0  0  0  0  0  0  0  0  0
    6.0691    0.0081    0.2938 H   0  0  0  0  0  0  0  0  0  0  0  0
    5.1501    2.2728    0.0131 H   0  0  0  0  0  0  0  0  0  0  0  0
    2.7231    2.6067   -0.1850 H   0  0  0  0  0  0  0  0  0  0  0  0
    0.1094    2.4556   -0.3475 H   0  0  0  0  0  0  0  0  0  0  0  0
   -2.2673    1.8481   -0.4575 H   0  0  0  0  0  0  0  0  0  0  0  0
  1  2  1  0  0  0  0
  1  3  2  0  0  0  0
  1  4  1  0  0  0  0
  2 18  1  0  0  0  0
  2 19  1  0  0  0  0
  2 20  1  0  0  0  0
  4  5  1  0  0  0  0
  4 21  1  0  0  0  0
  5  6  2  0  0  0  0
  5 17  1  0  0  0  0
  6  7  1  0  0  0  0
  6 22  1  0  0  0  0
  7  8  1  0  0  0  0
  7 15  2  0  0  0  0
  8  9  1  0  0  0  0
  8 23  1  0  0  0  0
  8 24  1  0  0  0  0
  9 10  2  0  0  0  0
  9 14  1  0  0  0  0
 10 11  1  0  0  0  0
 10 25  1  0  0  0  0
 11 12  2  0  0  0  0
 11 26  1  0  0  0  0
 12 13  1  0  0  0  0
 12 27  1  0  0  0  0
 13 14  2  0  0  0  0
 13 28  1  0  0  0  0
 14 15  1  0  0  0  0
 15 16  1  0  0  0  0
 16 17  2  0  0  0  0
 16 29  1  0  0  0  0
 17 30  1  0  0  0  0
M  END
