C12H8Cl2
 OpenBabel01061902383D

 22 23  0  0  0  0  0  0  0  0999 V2000
   -5.2468    0.0004   -0.0015 Cl  0  0  0  0  0  0  0  0  0  0  0  0
   -3.5108    0.0003   -0.0008 C   0  0  0  0  0  0  0  0  0  0  0  0
   -2.8210    1.1287    0.4086 C   0  0  0  0  0  0  0  0  0  0  0  0
   -1.4410    1.1335    0.4110 C   0  0  0  0  0  0  0  0  0  0  0  0
   -0.7419    0.0003    0.0003 C   0  0  0  0  0  0  0  0  0  0  0  0
   -1.4408   -1.1330   -0.4109 C   0  0  0  0  0  0  0  0  0  0  0  0
   -2.8207   -1.1300   -0.4043 C   0  0  0  0  0  0  0  0  0  0  0  0
    0.7419    0.0004    0.0005 C   0  0  0  0  0  0  0  0  0  0  0  0
    1.4410   -1.1338    0.4090 C   0  0  0  0  0  0  0  0  0  0  0  0
    2.8209   -1.1289    0.4069 C   0  0  0  0  0  0  0  0  0  0  0  0
    3.5108    0.0003   -0.0001 C   0  0  0  0  0  0  0  0  0  0  0  0
    2.8208    1.1296   -0.4064 C   0  0  0  0  0  0  0  0  0  0  0  0
    1.4408    1.1326   -0.4133 C   0  0  0  0  0  0  0  0  0  0  0  0
    5.2468    0.0002   -0.0005 Cl  0  0  0  0  0  0  0  0  0  0  0  0
   -3.3637    2.0066    0.7264 H   0  0  0  0  0  0  0  0  0  0  0  0
   -0.9038    2.0144    0.7302 H   0  0  0  0  0  0  0  0  0  0  0  0
   -0.9033   -2.0137   -0.7300 H   0  0  0  0  0  0  0  0  0  0  0  0
   -3.3633   -2.0079   -0.7225 H   0  0  0  0  0  0  0  0  0  0  0  0
    0.9037   -2.0150    0.7270 H   0  0  0  0  0  0  0  0  0  0  0  0
    3.3636   -2.0073    0.7236 H   0  0  0  0  0  0  0  0  0  0  0  0
    3.3634    2.0082   -0.7227 H   0  0  0  0  0  0  0  0  0  0  0  0
    0.9035    2.0142   -0.7304 H   0  0  0  0  0  0  0  0  0  0  0  0
  1  2  1  0  0  0  0
  2  3  2  0  0  0  0
  2  7  1  0  0  0  0
  3  4  1  0  0  0  0
  3 15  1  0  0  0  0
  4  5  2  0  0  0  0
  4 16  1  0  0  0  0
  5  6  1  0  0  0  0
  5  8  1  0  0  0  0
  6  7  2  0  0  0  0
  6 17  1  0  0  0  0
  7 18  1  0  0  0  0
  8  9  2  0  0  0  0
  8 13  1  0  0  0  0
  9 10  1  0  0  0  0
  9 19  1  0  0  0  0
 10 11  2  0  0  0  0
 10 20  1  0  0  0  0
 11 12  1  0  0  0  0
 11 14  1  0  0  0  0
 12 13  2  0  0  0  0
 12 21  1  0  0  0  0
 13 22  1  0  0  0  0
M  END
