C8H14B
 OpenBabel01061902143D

 23 24  0  0  0  0  0  0  0  0999 V2000
   -0.0010    0.0000    1.8755 B   0  0  0  0  0  0  0  0  0  0  0  0
    1.2699   -1.2613    0.0492 C   0  0  0  0  0  0  0  0  0  0  0  0
    1.4325    0.0031   -0.7831 C   0  0  0  0  0  0  0  0  0  0  0  0
    1.2632    1.2673    0.0482 C   0  0  0  0  0  0  0  0  0  0  0  0
   -1.2710    1.2609    0.0486 C   0  0  0  0  0  0  0  0  0  0  0  0
   -1.2644   -1.2669    0.0476 C   0  0  0  0  0  0  0  0  0  0  0  0
   -1.4301   -0.0031   -0.7853 C   0  0  0  0  0  0  0  0  0  0  0  0
    0.0023   -1.2543    0.8891 C   0  0  2  0  0  0  0  0  0  0  0  0
   -0.0036    1.2543    0.8891 C   0  0  1  0  0  0  0  0  0  0  0  0
    1.2525   -2.1300   -0.6194 H   0  0  0  0  0  0  0  0  0  0  0  0
    2.1378   -1.3685    0.7104 H   0  0  0  0  0  0  0  0  0  0  0  0
    0.0038   -2.1649    1.5122 H   0  0  0  0  0  0  0  0  0  0  0  0
    2.4719    0.0056   -1.1745 H   0  0  0  0  0  0  0  0  0  0  0  0
    0.7941    0.0009   -1.6525 H   0  0  0  0  0  0  0  0  0  0  0  0
    2.1311    1.3803    0.7084 H   0  0  0  0  0  0  0  0  0  0  0  0
    1.2405    2.1352   -0.6214 H   0  0  0  0  0  0  0  0  0  0  0  0
   -0.0059    2.1649    1.5122 H   0  0  0  0  0  0  0  0  0  0  0  0
   -1.2548    2.1303   -0.6186 H   0  0  0  0  0  0  0  0  0  0  0  0
   -2.1393    1.3651    0.7096 H   0  0  0  0  0  0  0  0  0  0  0  0
   -2.1327   -1.3769    0.7077 H   0  0  0  0  0  0  0  0  0  0  0  0
   -1.2426   -2.1356   -0.6207 H   0  0  0  0  0  0  0  0  0  0  0  0
   -2.4674   -0.0056   -1.1816 H   0  0  0  0  0  0  0  0  0  0  0  0
   -0.7870   -0.0009   -1.6510 H   0  0  0  0  0  0  0  0  0  0  0  0
  1  8  1  0  0  0  0
  1  9  1  0  0  0  0
  2  8  1  0  0  0  0
  2  3  1  0  0  0  0
  2 10  1  0  0  0  0
  2 11  1  0  0  0  0
  3  4  1  0  0  0  0
  3 13  1  0  0  0  0
  3 14  1  0  0  0  0
  4  9  1  0  0  0  0
  4 15  1  0  0  0  0
  4 16  1  0  0  0  0
  5  9  1  0  0  0  0
  5  7  1  0  0  0  0
  5 18  1  0  0  0  0
  5 19  1  0  0  0  0
  6  8  1  0  0  0  0
  6  7  1  0  0  0  0
  6 20  1  0  0  0  0
  6 21  1  0  0  0  0
  7 22  1  0  0  0  0
  7 23  1  0  0  0  0
  8 12  1  1  0  0  0
  9 17  1  1  0  0  0
M  RAD  1   1   2
M  END
