C12H8
 OpenBabel01061902033D

 20 22  0  0  0  0  0  0  0  0999 V2000
    0.6644   -2.3979   -0.0009 C   0  0  0  0  0  0  0  0  0  0  0  0
   -0.6644   -2.3979   -0.0003 C   0  0  0  0  0  0  0  0  0  0  0  0
   -1.1376   -1.0069    0.0003 C   0  0  0  0  0  0  0  0  0  0  0  0
   -2.3568   -0.3337    0.0005 C   0  0  0  0  0  0  0  0  0  0  0  0
   -2.3925    1.0620    0.0001 C   0  0  0  0  0  0  0  0  0  0  0  0
   -1.2413    1.8591   -0.0006 C   0  0  0  0  0  0  0  0  0  0  0  0
    0.0000    1.2287   -0.0003 C   0  0  0  0  0  0  0  0  0  0  0  0
    1.2413    1.8591   -0.0000 C   0  0  0  0  0  0  0  0  0  0  0  0
    2.3925    1.0620    0.0004 C   0  0  0  0  0  0  0  0  0  0  0  0
    2.3568   -0.3337    0.0002 C   0  0  0  0  0  0  0  0  0  0  0  0
    1.1376   -1.0069   -0.0003 C   0  0  0  0  0  0  0  0  0  0  0  0
   -0.0000   -0.2288    0.0002 C   0  0  0  0  0  0  0  0  0  0  0  0
    1.2932   -3.2759    0.0025 H   0  0  0  0  0  0  0  0  0  0  0  0
   -1.2932   -3.2759   -0.0009 H   0  0  0  0  0  0  0  0  0  0  0  0
   -3.2798   -0.8945    0.0008 H   0  0  0  0  0  0  0  0  0  0  0  0
   -3.3555    1.5509   -0.0002 H   0  0  0  0  0  0  0  0  0  0  0  0
   -1.3145    2.9366   -0.0018 H   0  0  0  0  0  0  0  0  0  0  0  0
    1.3145    2.9366   -0.0006 H   0  0  0  0  0  0  0  0  0  0  0  0
    3.3555    1.5509    0.0008 H   0  0  0  0  0  0  0  0  0  0  0  0
    3.2798   -0.8945   -0.0000 H   0  0  0  0  0  0  0  0  0  0  0  0
  1  2  2  0  0  0  0
  1 11  1  0  0  0  0
  1 13  1  0  0  0  0
  2  3  1  0  0  0  0
  2 14  1  0  0  0  0
  3  4  2  0  0  0  0
  3 12  1  0  0  0  0
  4  5  1  0  0  0  0
  4 15  1  0  0  0  0
  5  6  2  0  0  0  0
  5 16  1  0  0  0  0
  6  7  1  0  0  0  0
  6 17  1  0  0  0  0
  7  8  2  0  0  0  0
  7 12  1  0  0  0  0
  8  9  1  0  0  0  0
  8 18  1  0  0  0  0
  9 10  2  0  0  0  0
  9 19  1  0  0  0  0
 10 11  1  0  0  0  0
 10 20  1  0  0  0  0
 11 12  2  0  0  0  0
M  END
