C4H6O4
 OpenBabel01061902043D

 14 13  0  0  0  0  0  0  0  0999 V2000
   -1.7159    0.0994   -0.0011 C   0  0  0  0  0  0  0  0  0  0  0  0
   -2.9095   -0.8206   -0.0003 C   0  0  0  0  0  0  0  0  0  0  0  0
   -1.8767    1.3011    0.0024 O   0  0  0  0  0  0  0  0  0  0  0  0
   -0.4782   -0.4102    0.0000 O   0  0  0  0  0  0  0  0  0  0  0  0
    0.4782    0.4102   -0.0008 O   0  0  0  0  0  0  0  0  0  0  0  0
    1.7159   -0.0994    0.0003 C   0  0  0  0  0  0  0  0  0  0  0  0
    2.9095    0.8206   -0.0005 C   0  0  0  0  0  0  0  0  0  0  0  0
    1.8767   -1.3011    0.0019 O   0  0  0  0  0  0  0  0  0  0  0  0
   -3.1999   -1.0398   -1.0278 H   0  0  0  0  0  0  0  0  0  0  0  0
   -2.6526   -1.7486    0.5105 H   0  0  0  0  0  0  0  0  0  0  0  0
   -3.7392   -0.3388    0.5169 H   0  0  0  0  0  0  0  0  0  0  0  0
    2.5699    1.8563   -0.0019 H   0  0  0  0  0  0  0  0  0  0  0  0
    3.5107    0.6366    0.8899 H   0  0  0  0  0  0  0  0  0  0  0  0
    3.5112    0.6343   -0.8900 H   0  0  0  0  0  0  0  0  0  0  0  0
  1  2  1  0  0  0  0
  1  3  2  0  0  0  0
  1  4  1  0  0  0  0
  2  9  1  0  0  0  0
  2 10  1  0  0  0  0
  2 11  1  0  0  0  0
  4  5  1  0  0  0  0
  5  6  1  0  0  0  0
  6  7  1  0  0  0  0
  6  8  2  0  0  0  0
  7 12  1  0  0  0  0
  7 13  1  0  0  0  0
  7 14  1  0  0  0  0
M  END
