C8H8O
 OpenBabel01061902043D

 17 17  0  0  0  0  0  0  0  0999 V2000
    1.7380    0.3770    0.0015 C   0  0  0  0  0  0  0  0  0  0  0  0
    2.5477   -0.8940    0.0017 C   0  0  0  0  0  0  0  0  0  0  0  0
    2.2979    1.4526   -0.0033 O   0  0  0  0  0  0  0  0  0  0  0  0
    0.2678    0.3128    0.0011 C   0  0  0  0  0  0  0  0  0  0  0  0
   -0.4872    1.4901    0.0009 C   0  0  0  0  0  0  0  0  0  0  0  0
   -1.8643    1.4216    0.0000 C   0  0  0  0  0  0  0  0  0  0  0  0
   -2.4997    0.1920   -0.0003 C   0  0  0  0  0  0  0  0  0  0  0  0
   -1.7596   -0.9775    0.0004 C   0  0  0  0  0  0  0  0  0  0  0  0
   -0.3817   -0.9257   -0.0050 C   0  0  0  0  0  0  0  0  0  0  0  0
    2.7468   -1.1978    1.0294 H   0  0  0  0  0  0  0  0  0  0  0  0
    1.9904   -1.6799   -0.5080 H   0  0  0  0  0  0  0  0  0  0  0  0
    3.4916   -0.7235   -0.5161 H   0  0  0  0  0  0  0  0  0  0  0  0
    0.0072    2.4503    0.0018 H   0  0  0  0  0  0  0  0  0  0  0  0
   -2.4488    2.3298   -0.0001 H   0  0  0  0  0  0  0  0  0  0  0  0
   -3.5787    0.1449   -0.0006 H   0  0  0  0  0  0  0  0  0  0  0  0
   -2.2626   -1.9332    0.0005 H   0  0  0  0  0  0  0  0  0  0  0  0
    0.1945   -1.8392   -0.0045 H   0  0  0  0  0  0  0  0  0  0  0  0
  1  2  1  0  0  0  0
  1  3  2  0  0  0  0
  1  4  1  0  0  0  0
  2 10  1  0  0  0  0
  2 11  1  0  0  0  0
  2 12  1  0  0  0  0
  4  5  2  0  0  0  0
  4  9  1  0  0  0  0
  5  6  1  0  0  0  0
  5 13  1  0  0  0  0
  6  7  2  0  0  0  0
  6 14  1  0  0  0  0
  7  8  1  0  0  0  0
  7 15  1  0  0  0  0
  8  9  2  0  0  0  0
  8 16  1  0  0  0  0
  9 17  1  0  0  0  0
M  END
