C3H4O2
 OpenBabel01061902053D

  9  8  0  0  0  0  0  0  0  0999 V2000
    0.8667    1.4052    0.0000 O   0  0  0  0  0  0  0  0  0  0  0  0
    2.0057   -0.5014   -0.0000 O   0  0  0  0  0  0  0  0  0  0  0  0
    0.8485    0.1899    0.0000 C   0  0  0  0  0  0  0  0  0  0  0  0
    2.8245    0.0131    0.0000 H   0  0  0  0  0  0  0  0  0  0  0  0
   -0.4349   -0.5257    0.0000 C   0  0  0  0  0  0  0  0  0  0  0  0
   -1.5774    0.1569   -0.0000 C   0  0  0  0  0  0  0  0  0  0  0  0
   -0.4511   -1.6056    0.0000 H   0  0  0  0  0  0  0  0  0  0  0  0
   -1.5613    1.2367   -0.0000 H   0  0  0  0  0  0  0  0  0  0  0  0
   -2.5207   -0.3691   -0.0000 H   0  0  0  0  0  0  0  0  0  0  0  0
  1  3  2  0  0  0  0
  2  3  1  0  0  0  0
  2  4  1  0  0  0  0
  3  5  1  0  0  0  0
  5  6  2  0  0  0  0
  5  7  1  0  0  0  0
  6  8  1  0  0  0  0
  6  9  1  0  0  0  0
M  END
