C3H5NO
 OpenBabel01061902053D

 10  9  0  0  0  0  0  0  0  0999 V2000
    0.6446    0.3464   -0.0024 C   0  0  0  0  0  0  0  0  0  0  0  0
   -0.6350   -0.3793   -0.0018 C   0  0  0  0  0  0  0  0  0  0  0  0
   -1.7816    0.2946    0.0007 C   0  0  0  0  0  0  0  0  0  0  0  0
    0.6540    1.5625   -0.0005 O   0  0  0  0  0  0  0  0  0  0  0  0
    1.8065   -0.3365    0.0007 N   0  0  0  0  0  0  0  0  0  0  0  0
   -0.6433   -1.4592   -0.0034 H   0  0  0  0  0  0  0  0  0  0  0  0
   -1.7733    1.3745    0.0024 H   0  0  0  0  0  0  0  0  0  0  0  0
   -2.7210   -0.2382    0.0012 H   0  0  0  0  0  0  0  0  0  0  0  0
    1.7990   -1.3065    0.0032 H   0  0  0  0  0  0  0  0  0  0  0  0
    2.6503    0.1420    0.0003 H   0  0  0  0  0  0  0  0  0  0  0  0
  1  2  1  0  0  0  0
  1  4  2  0  0  0  0
  1  5  1  0  0  0  0
  2  3  2  0  0  0  0
  2  6  1  0  0  0  0
  3  7  1  0  0  0  0
  3  8  1  0  0  0  0
  5  9  1  0  0  0  0
  5 10  1  0  0  0  0
M  END
