C5H5N5
 OpenBabel01061902063D

 15 16  0  0  0  0  0  0  0  0999 V2000
   -1.9079   -0.7014   -0.0001 N   0  0  0  0  0  0  0  0  0  0  0  0
   -1.4205   -1.9287   -0.0001 C   0  0  0  0  0  0  0  0  0  0  0  0
   -0.1294   -2.1767   -0.0000 N   0  0  0  0  0  0  0  0  0  0  0  0
    0.7553   -1.1746   -0.0003 C   0  0  0  0  0  0  0  0  0  0  0  0
    2.0997   -1.1026    0.0002 N   0  0  0  0  0  0  0  0  0  0  0  0
    2.4748    0.1463    0.0001 C   0  0  0  0  0  0  0  0  0  0  0  0
    1.3926    0.9568   -0.0004 N   0  0  0  0  0  0  0  0  0  0  0  0
    0.2770    0.1462   -0.0007 C   0  0  0  0  0  0  0  0  0  0  0  0
   -1.1028    0.3579   -0.0003 C   0  0  0  0  0  0  0  0  0  0  0  0
   -1.6223    1.6424    0.0003 N   0  0  0  0  0  0  0  0  0  0  0  0
   -2.1090   -2.7608    0.0001 H   0  0  0  0  0  0  0  0  0  0  0  0
    3.5006    0.4841    0.0007 H   0  0  0  0  0  0  0  0  0  0  0  0
    1.3996    1.9268   -0.0003 H   0  0  0  0  0  0  0  0  0  0  0  0
   -1.0253    2.4070    0.0005 H   0  0  0  0  0  0  0  0  0  0  0  0
   -2.5829    1.7771    0.0005 H   0  0  0  0  0  0  0  0  0  0  0  0
  1  2  2  0  0  0  0
  1  9  1  0  0  0  0
  2  3  1  0  0  0  0
  2 11  1  0  0  0  0
  3  4  2  0  0  0  0
  4  5  1  0  0  0  0
  4  8  1  0  0  0  0
  5  6  2  0  0  0  0
  6  7  1  0  0  0  0
  6 12  1  0  0  0  0
  7  8  1  0  0  0  0
  7 13  1  0  0  0  0
  8  9  2  0  0  0  0
  9 10  1  0  0  0  0
 10 14  1  0  0  0  0
 10 15  1  0  0  0  0
M  END
