C7H9ClN2O3
 OpenBabel01061902083D

 22 20  0  0  0  0  0  0  0  0999 V2000
   12.6985    1.0782    0.1687 H   0  3  0  0  0  0  0  0  0  0  0  0
   -1.0537   -1.3123    0.9660 H   0  0  0  0  0  0  0  0  0  0  0  0
    1.2282    1.6631   -1.1500 H   0  0  0  0  0  0  0  0  0  0  0  0
   -0.6243    3.2376   -0.9362 H   0  0  0  0  0  0  0  0  0  0  0  0
    0.3314   -2.3904    0.6416 H   0  0  0  0  0  0  0  0  0  0  0  0
    3.2047   -1.0539   -0.8335 H   0  0  0  0  0  0  0  0  0  0  0  0
    2.5688    0.4853   -1.0556 H   0  0  0  0  0  0  0  0  0  0  0  0
   -3.8195    0.8792    1.3468 H   0  0  0  0  0  0  0  0  0  0  0  0
    1.9893   -3.9415    0.3077 H   0  0  0  0  0  0  0  0  0  0  0  0
   -2.8993    2.7195    0.2502 O   0  0  0  0  0  0  0  0  0  0  0  0
    1.2905   -0.8401   -0.2271 C   0  0  0  0  0  0  0  0  0  0  0  0
   -3.1437    0.1884    1.3126 O   0  0  0  0  0  0  0  0  0  0  0  0
    2.1839   -3.0552   -0.0264 O   0  0  0  0  0  0  0  0  0  0  0  0
  -12.5315   -0.8922   -0.2894 Cl  0  5  0  0  0  0  0  0  0  0  0  0
    0.2119    0.0713   -0.1071 C   0  0  0  0  0  0  0  0  0  0  0  0
   -2.0020    0.5621    0.6733 C   0  0  0  0  0  0  0  0  0  0  0  0
   -1.8881    1.8582    0.1344 C   0  0  0  0  0  0  0  0  0  0  0  0
    2.4651   -0.4311   -0.7550 N   0  0  0  0  0  0  0  0  0  0  0  0
   -0.9677   -0.3176    0.5540 C   0  0  0  0  0  0  0  0  0  0  0  0
    0.3225    1.3648   -0.6430 C   0  0  0  0  0  0  0  0  0  0  0  0
   -0.7110    2.2433   -0.5235 C   0  0  0  0  0  0  0  0  0  0  0  0
    1.1461   -2.1168    0.1916 N   0  0  0  0  0  0  0  0  0  0  0  0
  2 19  1  0  0  0  0
  3 20  1  0  0  0  0
  4 21  1  0  0  0  0
  5 22  1  0  0  0  0
  6 18  1  0  0  0  0
  7 18  1  0  0  0  0
  8 12  1  0  0  0  0
  9 13  1  0  0  0  0
 10 17  2  0  0  0  0
 11 22  1  0  0  0  0
 11 18  1  0  0  0  0
 11 15  2  0  0  0  0
 12 16  1  0  0  0  0
 13 22  1  0  0  0  0
 15 19  1  0  0  0  0
 15 20  1  0  0  0  0
 16 19  2  0  0  0  0
 16 17  1  0  0  0  0
 17 21  1  0  0  0  0
 20 21  2  0  0  0  0
M  CHG  2   1   1  14  -1
M  END
