C6H14N4O2
 OpenBabel01061902113D

 26 25  0  0  0  0  0  0  0  0999 V2000
    2.6113    1.7881   -0.2785 N   0  0  0  0  0  0  0  0  0  0  0  0
    2.5492    0.4839    0.3948 C   0  0  1  0  0  0  0  0  0  0  0  0
    2.4956    0.6339    1.4731 H   0  0  0  0  0  0  0  0  0  0  0  0
    1.3071   -0.2749   -0.0768 C   0  0  0  0  0  0  0  0  0  0  0  0
    0.0508    0.4733    0.3733 C   0  0  0  0  0  0  0  0  0  0  0  0
   -1.1912   -0.2855   -0.0983 C   0  0  0  0  0  0  0  0  0  0  0  0
   -2.3942    0.4309    0.3327 N   0  0  0  0  0  0  0  0  0  0  0  0
   -3.6382   -0.0652    0.0218 C   0  0  0  0  0  0  0  0  0  0  0  0
   -3.7532   -1.2335   -0.6937 N   0  0  0  0  0  0  0  0  0  0  0  0
   -4.7085    0.5722    0.4053 N   0  0  0  0  0  0  0  0  0  0  0  0
    3.7828   -0.3139    0.0593 C   0  0  0  0  0  0  0  0  0  0  0  0
    4.4389   -0.0307   -0.9150 O   0  0  0  0  0  0  0  0  0  0  0  0
    4.1528   -1.3391    0.8428 O   0  0  0  0  0  0  0  0  0  0  0  0
    2.6616    1.6759   -1.2800 H   0  0  0  0  0  0  0  0  0  0  0  0
    1.8269    2.3670   -0.0184 H   0  0  0  0  0  0  0  0  0  0  0  0
    1.3168   -0.3473   -1.1644 H   0  0  0  0  0  0  0  0  0  0  0  0
    1.3077   -1.2761    0.3539 H   0  0  0  0  0  0  0  0  0  0  0  0
    0.0411    0.5457    1.4609 H   0  0  0  0  0  0  0  0  0  0  0  0
    0.0502    1.4746   -0.0574 H   0  0  0  0  0  0  0  0  0  0  0  0
   -1.1816   -0.3579   -1.1859 H   0  0  0  0  0  0  0  0  0  0  0  0
   -1.1907   -1.2868    0.3325 H   0  0  0  0  0  0  0  0  0  0  0  0
   -2.3130    1.2552    0.8375 H   0  0  0  0  0  0  0  0  0  0  0  0
   -2.9567   -1.7079   -0.9791 H   0  0  0  0  0  0  0  0  0  0  0  0
   -4.6309   -1.5835   -0.9130 H   0  0  0  0  0  0  0  0  0  0  0  0
   -5.5861    0.2223    0.1860 H   0  0  0  0  0  0  0  0  0  0  0  0
    4.9511   -1.8211    0.5872 H   0  0  0  0  0  0  0  0  0  0  0  0
  1  2  1  0  0  0  0
  1 14  1  0  0  0  0
  1 15  1  0  0  0  0
  2  3  1  1  0  0  0
  2  4  1  0  0  0  0
  2 11  1  0  0  0  0
  4  5  1  0  0  0  0
  4 16  1  0  0  0  0
  4 17  1  0  0  0  0
  5  6  1  0  0  0  0
  5 18  1  0  0  0  0
  5 19  1  0  0  0  0
  6  7  1  0  0  0  0
  6 20  1  0  0  0  0
  6 21  1  0  0  0  0
  7  8  1  0  0  0  0
  7 22  1  0  0  0  0
  8  9  1  0  0  0  0
  8 10  2  0  0  0  0
  9 23  1  0  0  0  0
  9 24  1  0  0  0  0
 10 25  1  0  0  0  0
 11 12  2  0  0  0  0
 11 13  1  0  0  0  0
 13 26  1  0  0  0  0
M  END
