C4H8N2O3
 OpenBabel01061902123D

 17 16  0  0  0  0  0  0  0  0999 V2000
   -0.4682    1.7695   -0.0135 N   0  0  0  0  0  0  0  0  0  0  0  0
   -0.6225    0.3746   -0.4475 C   0  0  1  0  0  0  0  0  0  0  0  0
   -0.4448    0.3062   -1.5207 H   0  0  0  0  0  0  0  0  0  0  0  0
    0.3867   -0.5048    0.2936 C   0  0  0  0  0  0  0  0  0  0  0  0
    1.7851   -0.1141   -0.1100 C   0  0  0  0  0  0  0  0  0  0  0  0
    2.8440   -0.7579    0.4197 N   0  0  0  0  0  0  0  0  0  0  0  0
    1.9576    0.7797   -0.9115 O   0  0  0  0  0  0  0  0  0  0  0  0
   -2.0206   -0.0958   -0.1389 C   0  0  0  0  0  0  0  0  0  0  0  0
   -2.6851    0.4853    0.6861 O   0  0  0  0  0  0  0  0  0  0  0  0
   -2.5275   -1.1602   -0.7805 O   0  0  0  0  0  0  0  0  0  0  0  0
   -1.0791    2.3801   -0.5349 H   0  0  0  0  0  0  0  0  0  0  0  0
   -0.6281    1.8592    0.9787 H   0  0  0  0  0  0  0  0  0  0  0  0
    0.2672   -0.3683    1.3684 H   0  0  0  0  0  0  0  0  0  0  0  0
    0.2137   -1.5503    0.0387 H   0  0  0  0  0  0  0  0  0  0  0  0
    2.7061   -1.4727    1.0607 H   0  0  0  0  0  0  0  0  0  0  0  0
    3.7441   -0.5064    0.1599 H   0  0  0  0  0  0  0  0  0  0  0  0
   -3.4284   -1.4244   -0.5488 H   0  0  0  0  0  0  0  0  0  0  0  0
  1  2  1  0  0  0  0
  1 11  1  0  0  0  0
  1 12  1  0  0  0  0
  2  3  1  6  0  0  0
  2  4  1  0  0  0  0
  2  8  1  0  0  0  0
  4  5  1  0  0  0  0
  4 13  1  0  0  0  0
  4 14  1  0  0  0  0
  5  6  1  0  0  0  0
  5  7  2  0  0  0  0
  6 15  1  0  0  0  0
  6 16  1  0  0  0  0
  8  9  2  0  0  0  0
  8 10  1  0  0  0  0
 10 17  1  0  0  0  0
M  END
