C14H18N2O5
 OpenBabel01061902123D

 39 39  0  0  0  0  0  0  0  0999 V2000
    1.8425    1.9013    1.1166 C   0  0  0  0  0  0  0  0  0  0  0  0
    3.4883    1.1313   -0.4425 C   0  0  0  0  0  0  0  0  0  0  0  0
    2.1871    3.2099    0.8342 C   0  0  0  0  0  0  0  0  0  0  0  0
    3.8330    2.4399   -0.7249 C   0  0  0  0  0  0  0  0  0  0  0  0
    3.1823    3.4792   -0.0867 C   0  0  0  0  0  0  0  0  0  0  0  0
    2.1171   -0.5645    0.7859 C   0  0  0  0  0  0  0  0  0  0  0  0
   -3.3805   -0.1218    0.1386 C   0  0  0  0  0  0  0  0  0  0  0  0
    1.3324   -4.7782    0.1174 C   0  0  0  0  0  0  0  0  0  0  0  0
   -0.3470    0.1686    0.9655 H   0  0  0  0  0  0  0  0  0  0  0  0
   -3.1916    0.3837   -2.4684 H   0  0  0  0  0  0  0  0  0  0  0  0
   -3.7475    1.7720   -1.7408 H   0  0  0  0  0  0  0  0  0  0  0  0
    2.4929    0.8620    0.4781 C   0  0  0  0  0  0  0  0  0  0  0  0
   -0.3898   -2.8279    0.4012 O   0  0  0  0  0  0  0  0  0  0  0  0
   -0.9430   -0.5672   -1.9715 O   0  0  0  0  0  0  0  0  0  0  0  0
   -4.6106    1.8868    0.2043 O   0  0  0  0  0  0  0  0  0  0  0  0
   -5.5982    0.1696    1.1838 O   0  0  0  0  0  0  0  0  0  0  0  0
    0.7152   -2.4771    0.0608 C   0  0  0  0  0  0  0  0  0  0  0  0
   -1.1208   -0.0667   -0.8812 C   0  0  0  0  0  0  0  0  0  0  0  0
   -4.5746    0.7187    0.5112 C   0  0  0  0  0  0  0  0  0  0  0  0
    1.6838   -3.3891   -0.1171 O   0  0  0  0  0  0  0  0  0  0  0  0
   -6.3420    0.7483    1.4005 H   0  0  0  0  0  0  0  0  0  0  0  0
    1.0058   -1.0155   -0.1640 C   0  0  1  0  0  0  0  0  0  0  0  0
   -2.3661    0.7396   -0.6163 C   0  0  1  0  0  0  0  0  0  0  0  0
   -2.9478    1.1757   -1.8928 N   0  0  0  0  0  0  0  0  0  0  0  0
   -0.2048   -0.2317    0.0935 N   0  0  0  0  0  0  0  0  0  0  0  0
    1.3250   -0.8630   -1.1950 H   0  0  0  0  0  0  0  0  0  0  0  0
    2.9887   -1.2060    0.6560 H   0  0  0  0  0  0  0  0  0  0  0  0
    1.7654   -0.6336    1.8153 H   0  0  0  0  0  0  0  0  0  0  0  0
    1.0681    1.6908    1.8394 H   0  0  0  0  0  0  0  0  0  0  0  0
    3.9965    0.3193   -0.9414 H   0  0  0  0  0  0  0  0  0  0  0  0
   -2.1125    1.6129   -0.0154 H   0  0  0  0  0  0  0  0  0  0  0  0
    2.2035   -5.4086   -0.0613 H   0  0  0  0  0  0  0  0  0  0  0  0
    1.0012   -4.9001    1.1487 H   0  0  0  0  0  0  0  0  0  0  0  0
    0.5286   -5.0689   -0.5591 H   0  0  0  0  0  0  0  0  0  0  0  0
    1.6787    4.0219    1.3328 H   0  0  0  0  0  0  0  0  0  0  0  0
    4.6110    2.6502   -1.4439 H   0  0  0  0  0  0  0  0  0  0  0  0
   -2.9188   -0.5182    1.0430 H   0  0  0  0  0  0  0  0  0  0  0  0
   -3.7011   -0.9469   -0.4973 H   0  0  0  0  0  0  0  0  0  0  0  0
    3.4510    4.5015   -0.3079 H   0  0  0  0  0  0  0  0  0  0  0  0
  1 12  2  0  0  0  0
  1  3  1  0  0  0  0
  1 29  1  0  0  0  0
  2 12  1  0  0  0  0
  2  4  2  0  0  0  0
  2 30  1  0  0  0  0
  3  5  2  0  0  0  0
  3 35  1  0  0  0  0
  4  5  1  0  0  0  0
  4 36  1  0  0  0  0
  5 39  1  0  0  0  0
  6 22  1  0  0  0  0
  6 12  1  0  0  0  0
  6 27  1  0  0  0  0
  6 28  1  0  0  0  0
  7 23  1  0  0  0  0
  7 19  1  0  0  0  0
  7 37  1  0  0  0  0
  7 38  1  0  0  0  0
  8 20  1  0  0  0  0
  8 32  1  0  0  0  0
  8 33  1  0  0  0  0
  8 34  1  0  0  0  0
  9 25  1  0  0  0  0
 10 24  1  0  0  0  0
 11 24  1  0  0  0  0
 13 17  2  0  0  0  0
 14 18  2  0  0  0  0
 15 19  2  0  0  0  0
 16 19  1  0  0  0  0
 16 21  1  0  0  0  0
 17 22  1  0  0  0  0
 17 20  1  0  0  0  0
 18 25  1  0  0  0  0
 18 23  1  0  0  0  0
 22 25  1  0  0  0  0
 22 26  1  6  0  0  0
 23 24  1  0  0  0  0
 23 31  1  1  0  0  0
M  END
