C9H8O4
 OpenBabel01061902133D

 21 21  0  0  0  0  0  0  0  0999 V2000
    2.2566   -0.5624    0.2668 C   0  0  0  0  0  0  0  0  0  0  0  0
    0.8597    1.7398   -0.4211 C   0  0  0  0  0  0  0  0  0  0  0  0
    2.8882    0.6623    0.2760 C   0  0  0  0  0  0  0  0  0  0  0  0
    2.1924    1.8102   -0.0665 C   0  0  0  0  0  0  0  0  0  0  0  0
   -3.4665    0.3120   -0.0858 C   0  0  0  0  0  0  0  0  0  0  0  0
    0.9083   -0.6480   -0.0901 C   0  0  0  0  0  0  0  0  0  0  0  0
    0.2081    0.5158   -0.4364 C   0  0  0  0  0  0  0  0  0  0  0  0
   -0.9460   -2.0258   -0.4147 O   0  0  0  0  0  0  0  0  0  0  0  0
   -1.6358    0.7056    1.3444 O   0  0  0  0  0  0  0  0  0  0  0  0
    0.9030   -3.0716    0.2305 O   0  0  0  0  0  0  0  0  0  0  0  0
    0.2263   -1.9553   -0.1031 C   0  0  0  0  0  0  0  0  0  0  0  0
   -2.0012    0.5020    0.2109 C   0  0  0  0  0  0  0  0  0  0  0  0
   -1.1016    0.4452   -0.7848 O   0  0  0  0  0  0  0  0  0  0  0  0
    0.4135   -3.9052    0.2073 H   0  0  0  0  0  0  0  0  0  0  0  0
    2.8040   -1.4552    0.5306 H   0  0  0  0  0  0  0  0  0  0  0  0
    0.3242    2.6391   -0.6873 H   0  0  0  0  0  0  0  0  0  0  0  0
    3.9303    0.7275    0.5520 H   0  0  0  0  0  0  0  0  0  0  0  0
    2.6954    2.7659   -0.0566 H   0  0  0  0  0  0  0  0  0  0  0  0
   -3.7187   -0.7456   -0.0082 H   0  0  0  0  0  0  0  0  0  0  0  0
   -4.0590    0.8804    0.6311 H   0  0  0  0  0  0  0  0  0  0  0  0
   -3.6815    0.6638   -1.0948 H   0  0  0  0  0  0  0  0  0  0  0  0
  1  6  1  0  0  0  0
  1  3  2  0  0  0  0
  1 15  1  0  0  0  0
  2  7  1  0  0  0  0
  2  4  2  0  0  0  0
  2 16  1  0  0  0  0
  3  4  1  0  0  0  0
  3 17  1  0  0  0  0
  4 18  1  0  0  0  0
  5 12  1  0  0  0  0
  5 19  1  0  0  0  0
  5 20  1  0  0  0  0
  5 21  1  0  0  0  0
  6  7  2  0  0  0  0
  6 11  1  0  0  0  0
  7 13  1  0  0  0  0
  8 11  2  0  0  0  0
  9 12  2  0  0  0  0
 10 11  1  0  0  0  0
 10 14  1  0  0  0  0
 12 13  1  0  0  0  0
M  END
