C10H13N5O4
 OpenBabel01061902133D

 32 33  0  0  0  0  0  0  0  0999 V2000
   -3.8996    2.1585   -0.3061 N   0  3  0  0  0  0  0  0  0  0  0  0
   -4.2172    3.1234   -0.7873 N   0  5  0  0  0  0  0  0  0  0  0  0
   -0.3132    0.1121    0.5849 C   0  0  1  0  0  0  0  0  0  0  0  0
   -2.5118    0.3932   -0.4253 C   0  0  2  0  0  0  0  0  0  0  0  0
   -2.3393   -0.9389    0.3376 C   0  0  1  0  0  0  0  0  0  0  0  0
   -3.0662   -2.0694   -0.3935 C   0  0  0  0  0  0  0  0  0  0  0  0
    4.4563    0.9199    1.5376 C   0  0  0  0  0  0  0  0  0  0  0  0
   -3.3677   -4.0433   -0.0556 H   0  0  0  0  0  0  0  0  0  0  0  0
    2.8555   -0.5473   -2.4585 H   0  0  0  0  0  0  0  0  0  0  0  0
    0.4899   -0.5970   -1.8706 O   0  0  0  0  0  0  0  0  0  0  0  0
    4.8109    0.0904   -1.1181 O   0  0  0  0  0  0  0  0  0  0  0  0
   -1.1483    1.1005   -0.2589 C   0  0  0  0  0  0  0  0  0  0  0  0
   -2.9302   -3.2822    0.3500 O   0  0  0  0  0  0  0  0  0  0  0  0
    1.3823   -0.2595   -1.1170 C   0  0  0  0  0  0  0  0  0  0  0  0
    3.3559    0.5012    0.5970 C   0  0  0  0  0  0  0  0  0  0  0  0
    3.6578    0.1000   -0.7268 C   0  0  0  0  0  0  0  0  0  0  0  0
   -0.9151   -1.1785    0.3443 O   0  0  0  0  0  0  0  0  0  0  0  0
    2.0695    0.4982    1.0071 C   0  0  0  0  0  0  0  0  0  0  0  0
    1.0827    0.1147    0.1401 N   0  0  0  0  0  0  0  0  0  0  0  0
    2.6566   -0.2709   -1.5502 N   0  0  0  0  0  0  0  0  0  0  0  0
   -3.5819    1.1937    0.1750 N   0  0  0  0  0  0  0  0  0  0  0  0
   -0.3741    0.3679    1.6427 H   0  0  0  0  0  0  0  0  0  0  0  0
   -2.7212    0.2059   -1.4785 H   0  0  0  0  0  0  0  0  0  0  0  0
   -2.7127   -0.8434    1.3572 H   0  0  0  0  0  0  0  0  0  0  0  0
   -1.2703    2.0458    0.2701 H   0  0  0  0  0  0  0  0  0  0  0  0
   -0.6812    1.2629   -1.2303 H   0  0  0  0  0  0  0  0  0  0  0  0
    1.8205    0.7974    2.0145 H   0  0  0  0  0  0  0  0  0  0  0  0
   -4.1227   -1.8191   -0.4904 H   0  0  0  0  0  0  0  0  0  0  0  0
   -2.6314   -2.1999   -1.3843 H   0  0  0  0  0  0  0  0  0  0  0  0
    4.8238    0.0475    2.0781 H   0  0  0  0  0  0  0  0  0  0  0  0
    5.2721    1.3644    0.9676 H   0  0  0  0  0  0  0  0  0  0  0  0
    4.0689    1.6505    2.2477 H   0  0  0  0  0  0  0  0  0  0  0  0
  1 21  2  0  0  0  0
  1  2  2  0  0  0  0
  3 17  1  0  0  0  0
  3 19  1  0  0  0  0
  3 12  1  0  0  0  0
  3 22  1  1  0  0  0
  4 21  1  0  0  0  0
  4  5  1  0  0  0  0
  4 12  1  0  0  0  0
  4 23  1  6  0  0  0
  5 17  1  0  0  0  0
  5  6  1  0  0  0  0
  5 24  1  1  0  0  0
  6 13  1  0  0  0  0
  6 28  1  0  0  0  0
  6 29  1  0  0  0  0
  7 15  1  0  0  0  0
  7 30  1  0  0  0  0
  7 31  1  0  0  0  0
  7 32  1  0  0  0  0
  8 13  1  0  0  0  0
  9 20  1  0  0  0  0
 10 14  2  0  0  0  0
 11 16  2  0  0  0  0
 12 25  1  0  0  0  0
 12 26  1  0  0  0  0
 14 19  1  0  0  0  0
 14 20  1  0  0  0  0
 15 18  2  0  0  0  0
 15 16  1  0  0  0  0
 16 20  1  0  0  0  0
 18 19  1  0  0  0  0
 18 27  1  0  0  0  0
M  CHG  2   1   1   2  -1
M  END
