C7H6O2
 OpenBabel01061902143D

 15 15  0  0  0  0  0  0  0  0999 V2000
    2.0691    0.1481   -0.0013 C   0  0  0  0  0  0  0  0  0  0  0  0
    0.5926    0.1010   -0.0003 C   0  0  0  0  0  0  0  0  0  0  0  0
   -0.1469    1.2854    0.0003 C   0  0  0  0  0  0  0  0  0  0  0  0
   -1.5253    1.2341    0.0008 C   0  0  0  0  0  0  0  0  0  0  0  0
   -2.1754    0.0127    0.0012 C   0  0  0  0  0  0  0  0  0  0  0  0
   -1.4488   -1.1649    0.0010 C   0  0  0  0  0  0  0  0  0  0  0  0
   -0.0698   -1.1281   -0.0058 C   0  0  0  0  0  0  0  0  0  0  0  0
    2.6426    1.2189   -0.0016 O   0  0  0  0  0  0  0  0  0  0  0  0
    2.7795   -0.9964    0.0037 O   0  0  0  0  0  0  0  0  0  0  0  0
    0.3593    2.2395    0.0008 H   0  0  0  0  0  0  0  0  0  0  0  0
   -2.0985    2.1495    0.0013 H   0  0  0  0  0  0  0  0  0  0  0  0
   -3.2548   -0.0218    0.0019 H   0  0  0  0  0  0  0  0  0  0  0  0
   -1.9624   -2.1149    0.0020 H   0  0  0  0  0  0  0  0  0  0  0  0
    0.4961   -2.0480   -0.0062 H   0  0  0  0  0  0  0  0  0  0  0  0
    3.7431   -0.9151    0.0028 H   0  0  0  0  0  0  0  0  0  0  0  0
  1  2  1  0  0  0  0
  1  8  2  0  0  0  0
  1  9  1  0  0  0  0
  2  3  2  0  0  0  0
  2  7  1  0  0  0  0
  3  4  1  0  0  0  0
  3 10  1  0  0  0  0
  4  5  2  0  0  0  0
  4 11  1  0  0  0  0
  5  6  1  0  0  0  0
  5 12  1  0  0  0  0
  6  7  2  0  0  0  0
  6 13  1  0  0  0  0
  7 14  1  0  0  0  0
  9 15  1  0  0  0  0
M  END
