C6H6
 OpenBabel01061902143D

 12 12  0  0  0  0  0  0  0  0999 V2000
    0.1641   -1.3726   -0.0004 C   0  0  0  0  0  0  0  0  0  0  0  0
   -1.1066   -0.8284   -0.0001 C   0  0  0  0  0  0  0  0  0  0  0  0
   -1.2707    0.5442   -0.0003 C   0  0  0  0  0  0  0  0  0  0  0  0
   -0.1641    1.3726   -0.0003 C   0  0  0  0  0  0  0  0  0  0  0  0
    1.1066    0.8284    0.0003 C   0  0  0  0  0  0  0  0  0  0  0  0
    1.2707   -0.5442   -0.0009 C   0  0  0  0  0  0  0  0  0  0  0  0
    0.2923   -2.4449    0.0042 H   0  0  0  0  0  0  0  0  0  0  0  0
   -1.9712   -1.4756   -0.0003 H   0  0  0  0  0  0  0  0  0  0  0  0
   -2.2635    0.9693   -0.0008 H   0  0  0  0  0  0  0  0  0  0  0  0
   -0.2923    2.4449   -0.0010 H   0  0  0  0  0  0  0  0  0  0  0  0
    1.9712    1.4756   -0.0003 H   0  0  0  0  0  0  0  0  0  0  0  0
    2.2635   -0.9693   -0.0000 H   0  0  0  0  0  0  0  0  0  0  0  0
  1  2  2  0  0  0  0
  1  6  1  0  0  0  0
  1  7  1  0  0  0  0
  2  3  1  0  0  0  0
  2  8  1  0  0  0  0
  3  4  2  0  0  0  0
  3  9  1  0  0  0  0
  4  5  1  0  0  0  0
  4 10  1  0  0  0  0
  5  6  2  0  0  0  0
  5 11  1  0  0  0  0
  6 12  1  0  0  0  0
M  END
