C20H12
 OpenBabel01061902153D

 32 36  0  0  0  0  0  0  0  0999 V2000
   -3.5475    1.6505    0.0008 C   0  0  0  0  0  0  0  0  0  0  0  0
   -4.4519    0.6096    0.0001 C   0  0  0  0  0  0  0  0  0  0  0  0
   -4.0349   -0.7096    0.0002 C   0  0  0  0  0  0  0  0  0  0  0  0
   -2.6729   -1.0168    0.0004 C   0  0  0  0  0  0  0  0  0  0  0  0
   -2.2113   -2.4027   -0.0000 C   0  0  0  0  0  0  0  0  0  0  0  0
   -0.8936   -2.6995   -0.0003 C   0  0  0  0  0  0  0  0  0  0  0  0
    0.1025   -1.6276    0.0002 C   0  0  0  0  0  0  0  0  0  0  0  0
    1.4603   -1.9017   -0.0002 C   0  0  0  0  0  0  0  0  0  0  0  0
    2.4043   -0.8623    0.0003 C   0  0  0  0  0  0  0  0  0  0  0  0
    1.9947    0.4951    0.0004 C   0  0  0  0  0  0  0  0  0  0  0  0
    0.5697    0.8194   -0.0001 C   0  0  0  0  0  0  0  0  0  0  0  0
    0.1105    2.1499   -0.0004 C   0  0  0  0  0  0  0  0  0  0  0  0
   -1.2178    2.4263   -0.0008 C   0  0  0  0  0  0  0  0  0  0  0  0
   -2.1726    1.3849    0.0011 C   0  0  0  0  0  0  0  0  0  0  0  0
   -1.7356    0.0405    0.0006 C   0  0  0  0  0  0  0  0  0  0  0  0
   -0.3573   -0.2383    0.0007 C   0  0  0  0  0  0  0  0  0  0  0  0
    2.9608    1.5088    0.0004 C   0  0  0  0  0  0  0  0  0  0  0  0
    4.2847    1.1842    0.0004 C   0  0  0  0  0  0  0  0  0  0  0  0
    4.6925   -0.1476    0.0003 C   0  0  0  0  0  0  0  0  0  0  0  0
    3.7821   -1.1585    0.0002 C   0  0  0  0  0  0  0  0  0  0  0  0
   -3.8999    2.6714   -0.0035 H   0  0  0  0  0  0  0  0  0  0  0  0
   -5.5094    0.8289   -0.0001 H   0  0  0  0  0  0  0  0  0  0  0  0
   -4.7657   -1.5048    0.0004 H   0  0  0  0  0  0  0  0  0  0  0  0
   -2.9359   -3.2035    0.0004 H   0  0  0  0  0  0  0  0  0  0  0  0
   -0.5743   -3.7312   -0.0006 H   0  0  0  0  0  0  0  0  0  0  0  0
    1.7971   -2.9278   -0.0005 H   0  0  0  0  0  0  0  0  0  0  0  0
    0.8241    2.9606    0.0002 H   0  0  0  0  0  0  0  0  0  0  0  0
   -1.5491    3.4542   -0.0003 H   0  0  0  0  0  0  0  0  0  0  0  0
    2.6577    2.5453    0.0002 H   0  0  0  0  0  0  0  0  0  0  0  0
    5.0264    1.9692    0.0001 H   0  0  0  0  0  0  0  0  0  0  0  0
    5.7469   -0.3811   -0.0001 H   0  0  0  0  0  0  0  0  0  0  0  0
    4.1146   -2.1860    0.0005 H   0  0  0  0  0  0  0  0  0  0  0  0
  1  2  2  0  0  0  0
  1 14  1  0  0  0  0
  1 21  1  0  0  0  0
  2  3  1  0  0  0  0
  2 22  1  0  0  0  0
  3  4  2  0  0  0  0
  3 23  1  0  0  0  0
  4  5  1  0  0  0  0
  4 15  1  0  0  0  0
  5  6  2  0  0  0  0
  5 24  1  0  0  0  0
  6  7  1  0  0  0  0
  6 25  1  0  0  0  0
  7  8  1  0  0  0  0
  7 16  2  0  0  0  0
  8  9  2  0  0  0  0
  8 26  1  0  0  0  0
  9 10  1  0  0  0  0
  9 20  1  0  0  0  0
 10 11  2  0  0  0  0
 10 17  1  0  0  0  0
 11 12  1  0  0  0  0
 11 16  1  0  0  0  0
 12 13  2  0  0  0  0
 12 27  1  0  0  0  0
 13 14  1  0  0  0  0
 13 28  1  0  0  0  0
 14 15  2  0  0  0  0
 15 16  1  0  0  0  0
 17 18  2  0  0  0  0
 17 29  1  0  0  0  0
 18 19  1  0  0  0  0
 18 30  1  0  0  0  0
 19 20  2  0  0  0  0
 19 31  1  0  0  0  0
 20 32  1  0  0  0  0
M  END
