C4H6O2
 OpenBabel01061902163D

 12 11  0  0  0  0  0  0  0  0999 V2000
    0.7126   -0.2111    0.0031 C   0  0  0  0  0  0  0  0  0  0  0  0
    0.9945   -1.3856    0.0023 O   0  0  0  0  0  0  0  0  0  0  0  0
    1.8058    0.8262   -0.0008 C   0  0  0  0  0  0  0  0  0  0  0  0
   -0.7126    0.2111    0.0018 C   0  0  0  0  0  0  0  0  0  0  0  0
   -0.9945    1.3856    0.0026 O   0  0  0  0  0  0  0  0  0  0  0  0
   -1.8058   -0.8262   -0.0006 C   0  0  0  0  0  0  0  0  0  0  0  0
    2.0658    1.0761   -1.0294 H   0  0  0  0  0  0  0  0  0  0  0  0
    1.4585    1.7219    0.5141 H   0  0  0  0  0  0  0  0  0  0  0  0
    2.6837    0.4307    0.5101 H   0  0  0  0  0  0  0  0  0  0  0  0
   -1.3620   -1.8217   -0.0010 H   0  0  0  0  0  0  0  0  0  0  0  0
   -2.4241   -0.7044    0.8888 H   0  0  0  0  0  0  0  0  0  0  0  0
   -2.4219   -0.7027   -0.8912 H   0  0  0  0  0  0  0  0  0  0  0  0
  1  2  2  0  0  0  0
  1  3  1  0  0  0  0
  1  4  1  0  0  0  0
  3  7  1  0  0  0  0
  3  8  1  0  0  0  0
  3  9  1  0  0  0  0
  4  5  2  0  0  0  0
  4  6  1  0  0  0  0
  6 10  1  0  0  0  0
  6 11  1  0  0  0  0
  6 12  1  0  0  0  0
M  END
