C12H18N2O7
 OpenBabel01061902163D

 39 40  0  0  0  0  0  0  0  0999 V2000
   -0.0502    0.1234    0.4065 C   0  0  1  0  0  0  0  0  0  0  0  0
    2.7221    0.5359    0.3276 C   0  0  1  0  0  0  0  0  0  0  0  0
   -1.4060    0.6759    0.8510 C   0  0  2  0  0  0  0  0  0  0  0  0
   -2.5181    0.0189    0.0310 C   0  0  1  0  0  0  0  0  0  0  0  0
   -3.8678    0.6202    0.4281 C   0  0  0  0  0  0  0  0  0  0  0  0
   -2.2679    0.2662   -1.4580 C   0  0  0  0  0  0  0  0  0  0  0  0
    3.8802    2.1210    0.8250 H   0  0  0  0  0  0  0  0  0  0  0  0
   -1.4105    2.3528   -0.2844 H   0  0  0  0  0  0  0  0  0  0  0  0
   -2.6838   -1.6185    1.2112 H   0  0  0  0  0  0  0  0  0  0  0  0
   -5.7919    0.3401   -0.1380 H   0  0  0  0  0  0  0  0  0  0  0  0
   -0.1180    1.6146   -1.1339 H   0  0  0  0  0  0  0  0  0  0  0  0
    2.5345    0.5932    2.4727 H   0  0  0  0  0  0  0  0  0  0  0  0
    0.2432   -0.3451    2.6692 O   0  0  0  0  0  0  0  0  0  0  0  0
    2.2915    2.0530   -1.4040 O   0  0  0  0  0  0  0  0  0  0  0  0
    3.9654    1.2260    0.4688 O   0  0  0  0  0  0  0  0  0  0  0  0
   -1.4346    2.0898    0.6458 O   0  0  0  0  0  0  0  0  0  0  0  0
   -2.5299   -1.3873    0.2849 O   0  0  0  0  0  0  0  0  0  0  0  0
   -4.9065    0.0066   -0.3378 O   0  0  0  0  0  0  0  0  0  0  0  0
    0.7916   -1.6449   -0.9906 C   0  0  0  0  0  0  0  0  0  0  0  0
    1.9404   -1.9543   -0.0325 C   0  0  0  0  0  0  0  0  0  0  0  0
    4.1440   -1.1653   -0.6092 C   0  0  0  0  0  0  0  0  0  0  0  0
    0.7565    0.0486    1.6434 C   0  0  0  0  0  0  0  0  0  0  0  0
    1.8158    1.2810   -0.5987 C   0  0  0  0  0  0  0  0  0  0  0  0
    2.9668   -0.8678   -0.1175 C   0  0  0  0  0  0  0  0  0  0  0  0
   -0.3380   -1.0906   -0.2765 O   0  0  0  0  0  0  0  0  0  0  0  0
    0.4744    1.1094   -0.5553 N   0  0  0  0  0  0  0  0  0  0  0  0
    2.0594    0.4129    1.6466 N   0  0  0  0  0  0  0  0  0  0  0  0
   -1.5577    0.4590    1.9084 H   0  0  0  0  0  0  0  0  0  0  0  0
    1.1309   -0.9273   -1.7376 H   0  0  0  0  0  0  0  0  0  0  0  0
    0.4842   -2.5635   -1.4905 H   0  0  0  0  0  0  0  0  0  0  0  0
    1.5583   -2.0142    0.9865 H   0  0  0  0  0  0  0  0  0  0  0  0
    2.3953   -2.9061   -0.3066 H   0  0  0  0  0  0  0  0  0  0  0  0
   -4.0460    0.4440    1.4889 H   0  0  0  0  0  0  0  0  0  0  0  0
   -3.8588    1.6928    0.2344 H   0  0  0  0  0  0  0  0  0  0  0  0
   -3.0097   -0.2745   -2.0458 H   0  0  0  0  0  0  0  0  0  0  0  0
   -2.3458    1.3331   -1.6673 H   0  0  0  0  0  0  0  0  0  0  0  0
   -1.2699   -0.0839   -1.7218 H   0  0  0  0  0  0  0  0  0  0  0  0
    4.9062   -0.4038   -0.6838 H   0  0  0  0  0  0  0  0  0  0  0  0
    4.3523   -2.1721   -0.9401 H   0  0  0  0  0  0  0  0  0  0  0  0
  1 25  1  6  0  0  0
  1 26  1  0  0  0  0
  1 22  1  0  0  0  0
  1  3  1  0  0  0  0
  2 15  1  1  0  0  0
  2 27  1  0  0  0  0
  2 23  1  0  0  0  0
  2 24  1  0  0  0  0
  3 16  1  0  0  0  0
  3  4  1  0  0  0  0
  3 28  1  1  0  0  0
  4 17  1  1  0  0  0
  4  5  1  0  0  0  0
  4  6  1  0  0  0  0
  5 18  1  0  0  0  0
  5 33  1  0  0  0  0
  5 34  1  0  0  0  0
  6 35  1  0  0  0  0
  6 36  1  0  0  0  0
  6 37  1  0  0  0  0
  7 15  1  0  0  0  0
  8 16  1  0  0  0  0
  9 17  1  0  0  0  0
 10 18  1  0  0  0  0
 11 26  1  0  0  0  0
 12 27  1  0  0  0  0
 13 22  2  0  0  0  0
 14 23  2  0  0  0  0
 19 25  1  0  0  0  0
 19 20  1  0  0  0  0
 19 29  1  0  0  0  0
 19 30  1  0  0  0  0
 20 24  1  0  0  0  0
 20 31  1  0  0  0  0
 20 32  1  0  0  0  0
 21 24  2  0  0  0  0
 21 38  1  0  0  0  0
 21 39  1  0  0  0  0
 22 27  1  0  0  0  0
 23 26  1  0  0  0  0
M  END
