BiH2
 OpenBabel01061902163D

  3  2  0  0  0  0  0  0  0  0999 V2000
   -0.0000    0.0000    0.0000 Bi  0  0  0  0  0  0  0  0  0  0  0  0
   -1.9200   -0.0000   -0.0000 H   0  0  0  0  0  0  0  0  0  0  0  0
    1.9200   -0.0000   -0.0000 H   0  0  0  0  0  0  0  0  0  0  0  0
  1  2  1  0  0  0  0
  1  3  1  0  0  0  0
M  RAD  1   1   2
M  END
