B3H6N3
 OpenBabel01061902173D

 12 12  0  0  0  0  0  0  0  0999 V2000
    0.1585   -1.4854    0.1798 N   0  0  0  0  0  0  0  0  0  0  0  0
   -1.2070   -0.8799   -0.1410 B   0  0  0  0  0  0  0  0  0  0  0  0
   -1.3655    0.6053    0.1801 N   0  0  0  0  0  0  0  0  0  0  0  0
   -0.1585    1.4851   -0.1408 B   0  0  0  0  0  0  0  0  0  0  0  0
    1.2070    0.8797    0.1800 N   0  0  0  0  0  0  0  0  0  0  0  0
    1.3655   -0.6055   -0.1411 B   0  0  0  0  0  0  0  0  0  0  0  0
    0.2528   -2.3700    0.5663 H   0  0  0  0  0  0  0  0  0  0  0  0
   -2.0756   -1.5130   -0.6034 H   0  0  0  0  0  0  0  0  0  0  0  0
   -2.1803    0.9665    0.5628 H   0  0  0  0  0  0  0  0  0  0  0  0
   -0.2725    2.5539   -0.6031 H   0  0  0  0  0  0  0  0  0  0  0  0
    1.9272    1.4046    0.5630 H   0  0  0  0  0  0  0  0  0  0  0  0
    2.3483   -1.0412   -0.6028 H   0  0  0  0  0  0  0  0  0  0  0  0
  1  2  1  0  0  0  0
  1  6  1  0  0  0  0
  1  7  1  0  0  0  0
  2  3  1  0  0  0  0
  2  8  1  0  0  0  0
  3  4  1  0  0  0  0
  3  9  1  0  0  0  0
  4  5  1  0  0  0  0
  4 10  1  0  0  0  0
  5  6  1  0  0  0  0
  5 11  1  0  0  0  0
  6 12  1  0  0  0  0
M  END
