C4H10BF3O
 OpenBabel01061902183D

 19 18  0  0  0  0  0  0  0  0999 V2000
   -0.0863    0.2952    0.0903 O   0  3  0  0  0  0  0  0  0  0  0  0
   -0.3683   -1.0119   -0.4138 C   0  0  0  0  0  0  0  0  0  0  0  0
    1.1251    0.8629   -0.4117 C   0  0  0  0  0  0  0  0  0  0  0  0
   -1.6020   -1.5762    0.2936 C   0  0  0  0  0  0  0  0  0  0  0  0
    2.3019    0.3948    0.4467 C   0  0  0  0  0  0  0  0  0  0  0  0
   -2.1039    0.7243    0.9502 F   0  0  0  0  0  0  0  0  0  0  0  0
   -0.7435    2.4099    0.3907 F   0  0  0  0  0  0  0  0  0  0  0  0
   -1.6895    1.1591   -1.2048 F   0  0  0  0  0  0  0  0  0  0  0  0
   -1.1552    1.1467    0.0566 B   0  5  0  0  0  0  0  0  0  0  0  0
   -0.5584   -0.9547   -1.4856 H   0  0  0  0  0  0  0  0  0  0  0  0
    0.4857   -1.6640   -0.2305 H   0  0  0  0  0  0  0  0  0  0  0  0
    1.2769    0.5421   -1.4423 H   0  0  0  0  0  0  0  0  0  0  0  0
    1.0590    1.9503   -0.3757 H   0  0  0  0  0  0  0  0  0  0  0  0
   -1.4691   -1.4989    1.3727 H   0  0  0  0  0  0  0  0  0  0  0  0
   -2.4835   -1.0090   -0.0054 H   0  0  0  0  0  0  0  0  0  0  0  0
   -1.7323   -2.6225    0.0176 H   0  0  0  0  0  0  0  0  0  0  0  0
    2.1075    0.6354    1.4919 H   0  0  0  0  0  0  0  0  0  0  0  0
    2.4245   -0.6828    0.3386 H   0  0  0  0  0  0  0  0  0  0  0  0
    3.2121    0.8985    0.1213 H   0  0  0  0  0  0  0  0  0  0  0  0
  1  2  1  0  0  0  0
  1  3  1  0  0  0  0
  1  9  1  0  0  0  0
  2  4  1  0  0  0  0
  2 10  1  0  0  0  0
  2 11  1  0  0  0  0
  3  5  1  0  0  0  0
  3 12  1  0  0  0  0
  3 13  1  0  0  0  0
  4 14  1  0  0  0  0
  4 15  1  0  0  0  0
  4 16  1  0  0  0  0
  5 17  1  0  0  0  0
  5 18  1  0  0  0  0
  5 19  1  0  0  0  0
  6  9  1  0  0  0  0
  7  9  1  0  0  0  0
  8  9  1  0  0  0  0
M  CHG  2   1   1   9  -1
M  END
