BH2
 OpenBabel01061902183D

  3  2  0  0  0  0  0  0  0  0999 V2000
    0.0000   -0.4938   -0.0000 B   0  0  0  0  0  0  0  0  0  0  0  0
   -0.9567    0.2469    0.0000 H   0  0  0  0  0  0  0  0  0  0  0  0
    0.9567    0.2469    0.0000 H   0  0  0  0  0  0  0  0  0  0  0  0
  1  2  1  0  0  0  0
  1  3  1  0  0  0  0
M  RAD  1   1   2
M  END
