CHBrClF
 OpenBabel01061902193D

  5  4  0  0  0  0  0  0  0  0999 V2000
   -1.7400   -0.5488    0.3748 Br  0  0  0  0  0  0  0  0  0  0  0  0
    0.0511    0.0988   -0.1128 C   0  0  1  0  0  0  0  0  0  0  0  0
    0.2928    1.3226    0.5204 F   0  0  0  0  0  0  0  0  0  0  0  0
    1.2881   -1.1037    0.4111 Cl  0  0  0  0  0  0  0  0  0  0  0  0
    0.1078    0.2312   -1.1933 H   0  0  0  0  0  0  0  0  0  0  0  0
  1  2  1  0  0  0  0
  2  3  1  0  0  0  0
  2  4  1  0  0  0  0
  2  5  1  6  0  0  0
M  END
