C4H8O2
 OpenBabel01061902203D

 14 13  0  0  0  0  0  0  0  0999 V2000
    1.7508    0.1424   -0.0020 C   0  0  0  0  0  0  0  0  0  0  0  0
    0.3940   -0.5133   -0.0020 C   0  0  0  0  0  0  0  0  0  0  0  0
   -0.6928    0.5636    0.0006 C   0  0  0  0  0  0  0  0  0  0  0  0
   -2.0704   -0.1020    0.0006 C   0  0  0  0  0  0  0  0  0  0  0  0
    1.8395    1.3474   -0.0001 O   0  0  0  0  0  0  0  0  0  0  0  0
    2.8609   -0.6123    0.0015 O   0  0  0  0  0  0  0  0  0  0  0  0
    0.2897   -1.1326   -0.8928 H   0  0  0  0  0  0  0  0  0  0  0  0
    0.2911   -1.1354    0.8871 H   0  0  0  0  0  0  0  0  0  0  0  0
   -0.5886    1.1829    0.8915 H   0  0  0  0  0  0  0  0  0  0  0  0
   -0.5900    1.1858   -0.8884 H   0  0  0  0  0  0  0  0  0  0  0  0
   -2.1747   -0.7213   -0.8902 H   0  0  0  0  0  0  0  0  0  0  0  0
   -2.1733   -0.7242    0.8897 H   0  0  0  0  0  0  0  0  0  0  0  0
   -2.8447    0.6652    0.0025 H   0  0  0  0  0  0  0  0  0  0  0  0
    3.7084   -0.1466    0.0014 H   0  0  0  0  0  0  0  0  0  0  0  0
  1  2  1  0  0  0  0
  1  5  2  0  0  0  0
  1  6  1  0  0  0  0
  2  3  1  0  0  0  0
  2  7  1  0  0  0  0
  2  8  1  0  0  0  0
  3  4  1  0  0  0  0
  3  9  1  0  0  0  0
  3 10  1  0  0  0  0
  4 11  1  0  0  0  0
  4 12  1  0  0  0  0
  4 13  1  0  0  0  0
  6 14  1  0  0  0  0
M  END
