CO3
 OpenBabel01061902233D

  4  3  0  0  0  0  0  0  0  0999 V2000
   -0.0000    0.0000   -0.0013 C   0  0  0  0  0  0  0  0  0  0  0  0
   -1.0609    0.6125    0.0004 O   0  5  0  0  0  0  0  0  0  0  0  0
    1.0609    0.6125    0.0004 O   0  5  0  0  0  0  0  0  0  0  0  0
    0.0000   -1.2250    0.0004 O   0  0  0  0  0  0  0  0  0  0  0  0
  1  2  1  0  0  0  0
  1  3  1  0  0  0  0
  1  4  2  0  0  0  0
M  CHG  2   2  -1   3  -1
M  END
