C6H6O2
 OpenBabel01061902243D

 14 14  0  0  0  0  0  0  0  0999 V2000
   -0.7774   -0.6959    0.0118 C   0  0  0  0  0  0  0  0  0  0  0  0
   -1.9543   -1.3772    0.0248 O   0  0  0  0  0  0  0  0  0  0  0  0
   -0.7774    0.6959   -0.0135 C   0  0  0  0  0  0  0  0  0  0  0  0
   -1.9542    1.3773   -0.0253 O   0  0  0  0  0  0  0  0  0  0  0  0
    0.4240    1.3853   -0.0261 C   0  0  0  0  0  0  0  0  0  0  0  0
    1.6198    0.6909   -0.0136 C   0  0  0  0  0  0  0  0  0  0  0  0
    1.6198   -0.6910    0.0115 C   0  0  0  0  0  0  0  0  0  0  0  0
    0.4240   -1.3852    0.0295 C   0  0  0  0  0  0  0  0  0  0  0  0
   -2.2951   -1.5903   -0.8547 H   0  0  0  0  0  0  0  0  0  0  0  0
   -2.2942    1.5904    0.8546 H   0  0  0  0  0  0  0  0  0  0  0  0
    0.4268    2.4651   -0.0461 H   0  0  0  0  0  0  0  0  0  0  0  0
    2.5558    1.2295   -0.0238 H   0  0  0  0  0  0  0  0  0  0  0  0
    2.5558   -1.2297    0.0212 H   0  0  0  0  0  0  0  0  0  0  0  0
    0.4267   -2.4651    0.0492 H   0  0  0  0  0  0  0  0  0  0  0  0
  1  2  1  0  0  0  0
  1  3  1  0  0  0  0
  1  8  2  0  0  0  0
  2  9  1  0  0  0  0
  3  4  1  0  0  0  0
  3  5  2  0  0  0  0
  4 10  1  0  0  0  0
  5  6  1  0  0  0  0
  5 11  1  0  0  0  0
  6  7  2  0  0  0  0
  6 12  1  0  0  0  0
  7  8  1  0  0  0  0
  7 13  1  0  0  0  0
  8 14  1  0  0  0  0
M  END
