C20H28O3
 OpenBabel01061902243D

 51 53  0  0  0  0  0  0  0  0999 V2000
   -3.5160   -0.5148   -1.3891 C   0  0  0  0  0  0  0  0  0  0  0  0
    0.4248   -3.2252   -1.7208 C   0  0  0  0  0  0  0  0  0  0  0  0
   -0.5351    3.5985   -1.0530 C   0  0  0  0  0  0  0  0  0  0  0  0
    5.0799    1.1698   -1.1343 O   0  0  0  0  0  0  0  0  0  0  0  0
   -1.7533   -2.2771   -0.0803 C   0  0  0  0  0  0  0  0  0  0  0  0
    1.4927   -0.7891    1.1729 C   0  0  0  0  0  0  0  0  0  0  0  0
   -0.5406   -2.8534    0.6538 C   0  0  0  0  0  0  0  0  0  0  0  0
    1.1431    2.6157    0.6876 C   0  0  0  0  0  0  0  0  0  0  0  0
   -3.4912    1.0595    0.6920 C   0  0  0  0  0  0  0  0  0  0  0  0
   -2.6517    2.2455    0.2118 C   0  0  0  0  0  0  0  0  0  0  0  0
    3.7514    0.0958    0.5155 C   0  0  0  0  0  0  0  0  0  0  0  0
   -3.0313   -0.1983    0.0023 C   0  0  0  0  0  0  0  0  0  0  0  0
    4.0214    1.0807   -0.5437 C   0  0  0  0  0  0  0  0  0  0  0  0
   -0.2653    2.7523    0.1635 C   0  0  0  0  0  0  0  0  0  0  0  0
    1.9563   -3.1193    0.2921 O   0  0  0  0  0  0  0  0  0  0  0  0
    2.9604    1.8697   -0.7817 O   0  0  0  0  0  0  0  0  0  0  0  0
   -2.2094   -1.0177    0.6108 C   0  0  0  0  0  0  0  0  0  0  0  0
   -1.2512    2.1248    0.7550 C   0  0  0  0  0  0  0  0  0  0  0  0
    1.7334   -1.7379   -0.0017 C   0  0  1  0  0  0  0  0  0  0  0  0
    2.3734    0.4486    1.0518 C   0  0  1  0  0  0  0  0  0  0  0  0
    1.8155    1.4269    0.0034 C   0  0  1  0  0  0  0  0  0  0  0  0
    0.6792   -2.8139   -0.2703 C   0  0  1  0  0  0  0  0  0  0  0  0
    4.5447   -0.8940    0.9180 C   0  0  0  0  0  0  0  0  0  0  0  0
   -1.4791   -2.0474   -1.1099 H   0  0  0  0  0  0  0  0  0  0  0  0
   -2.5621   -3.0078   -0.0746 H   0  0  0  0  0  0  0  0  0  0  0  0
    0.4458   -0.4859    1.1811 H   0  0  0  0  0  0  0  0  0  0  0  0
    1.7241   -1.3050    2.1047 H   0  0  0  0  0  0  0  0  0  0  0  0
    2.2534   -1.3074   -0.8557 H   0  0  0  0  0  0  0  0  0  0  0  0
   -0.3401   -2.2602    1.5460 H   0  0  0  0  0  0  0  0  0  0  0  0
   -0.7458   -3.8846    0.9412 H   0  0  0  0  0  0  0  0  0  0  0  0
   -1.8602   -0.7917    1.6068 H   0  0  0  0  0  0  0  0  0  0  0  0
    2.4733    0.9480    2.0174 H   0  0  0  0  0  0  0  0  0  0  0  0
    1.1066    0.9135   -0.6475 H   0  0  0  0  0  0  0  0  0  0  0  0
    1.7027    3.5256    0.4708 H   0  0  0  0  0  0  0  0  0  0  0  0
    1.1169    2.4500    1.7646 H   0  0  0  0  0  0  0  0  0  0  0  0
   -1.0612    1.5220    1.6323 H   0  0  0  0  0  0  0  0  0  0  0  0
   -3.3752    0.9455    1.7698 H   0  0  0  0  0  0  0  0  0  0  0  0
   -4.5404    1.2391    0.4574 H   0  0  0  0  0  0  0  0  0  0  0  0
   -2.6194    2.2500   -0.8777 H   0  0  0  0  0  0  0  0  0  0  0  0
   -3.0995    3.1742    0.5654 H   0  0  0  0  0  0  0  0  0  0  0  0
   -2.8322   -0.0819   -2.1193 H   0  0  0  0  0  0  0  0  0  0  0  0
   -3.5541   -1.5958   -1.5234 H   0  0  0  0  0  0  0  0  0  0  0  0
   -4.5121   -0.0957   -1.5310 H   0  0  0  0  0  0  0  0  0  0  0  0
    0.0757   -2.3619   -2.2873 H   0  0  0  0  0  0  0  0  0  0  0  0
    1.3499   -3.5983   -2.1603 H   0  0  0  0  0  0  0  0  0  0  0  0
   -0.3326   -4.0086   -1.7488 H   0  0  0  0  0  0  0  0  0  0  0  0
   -1.5989    3.5670   -1.2888 H   0  0  0  0  0  0  0  0  0  0  0  0
   -0.2377    4.6278   -0.8528 H   0  0  0  0  0  0  0  0  0  0  0  0
    0.0358    3.2130   -1.8977 H   0  0  0  0  0  0  0  0  0  0  0  0
    5.5075   -1.0385    0.4507 H   0  0  0  0  0  0  0  0  0  0  0  0
    4.2255   -1.5529    1.7121 H   0  0  0  0  0  0  0  0  0  0  0  0
  1 12  1  0  0  0  0
  1 41  1  0  0  0  0
  1 42  1  0  0  0  0
  1 43  1  0  0  0  0
  2 44  1  0  0  0  0
  2 45  1  0  0  0  0
  2 46  1  0  0  0  0
  3 14  1  0  0  0  0
  3 47  1  0  0  0  0
  3 48  1  0  0  0  0
  3 49  1  0  0  0  0
  4 13  2  0  0  0  0
  5 17  1  0  0  0  0
  5  7  1  0  0  0  0
  5 24  1  0  0  0  0
  5 25  1  0  0  0  0
  6 20  1  0  0  0  0
  6 19  1  0  0  0  0
  6 26  1  0  0  0  0
  6 27  1  0  0  0  0
  7 22  1  0  0  0  0
  7 29  1  0  0  0  0
  7 30  1  0  0  0  0
  8 14  1  0  0  0  0
  8 21  1  0  0  0  0
  8 34  1  0  0  0  0
  8 35  1  0  0  0  0
  9 10  1  0  0  0  0
  9 12  1  0  0  0  0
  9 37  1  0  0  0  0
  9 38  1  0  0  0  0
 10 18  1  0  0  0  0
 10 39  1  0  0  0  0
 10 40  1  0  0  0  0
 11 23  2  0  0  0  0
 11 13  1  0  0  0  0
 11 20  1  0  0  0  0
 12 17  2  0  0  0  0
 13 16  1  0  0  0  0
 14 18  2  0  0  0  0
 15 22  1  0  0  0  0
 15 19  1  0  0  0  0
 16 21  1  0  0  0  0
 17 31  1  0  0  0  0
 18 36  1  0  0  0  0
 19 22  1  0  0  0  0
 19 28  1  6  0  0  0
 20 21  1  0  0  0  0
 20 32  1  1  0  0  0
 21 33  1  6  0  0  0
 22  2  1  6  0  0  0
 23 50  1  0  0  0  0
 23 51  1  0  0  0  0
M  END
