C6H8O7
 OpenBabel01061902283D

 21 20  0  0  0  0  0  0  0  0999 V2000
    2.4857   -0.0896    0.1669 C   0  0  0  0  0  0  0  0  0  0  0  0
    1.2562   -0.7520   -0.3992 C   0  0  0  0  0  0  0  0  0  0  0  0
    0.0072   -0.1324    0.2308 C   0  0  0  0  0  0  0  0  0  0  0  0
    0.0425   -0.3243    1.6464 O   0  0  0  0  0  0  0  0  0  0  0  0
   -0.0308    1.3427   -0.0754 C   0  0  0  0  0  0  0  0  0  0  0  0
   -0.0279    2.1471    0.8262 O   0  0  0  0  0  0  0  0  0  0  0  0
   -0.0679    1.7629   -1.3497 O   0  0  0  0  0  0  0  0  0  0  0  0
   -1.2411   -0.8049   -0.3440 C   0  0  0  0  0  0  0  0  0  0  0  0
   -2.4720   -0.1133    0.1829 C   0  0  0  0  0  0  0  0  0  0  0  0
   -2.3621    0.8215    0.9405 O   0  0  0  0  0  0  0  0  0  0  0  0
   -3.6905   -0.5359   -0.1893 O   0  0  0  0  0  0  0  0  0  0  0  0
    2.3744    0.7880    0.9899 O   0  0  0  0  0  0  0  0  0  0  0  0
    3.7047   -0.4784   -0.2390 O   0  0  0  0  0  0  0  0  0  0  0  0
    1.2292   -0.6056   -1.4790 H   0  0  0  0  0  0  0  0  0  0  0  0
    1.2837   -1.8189   -0.1778 H   0  0  0  0  0  0  0  0  0  0  0  0
    0.0682   -1.2523    1.9170 H   0  0  0  0  0  0  0  0  0  0  0  0
   -0.0914    2.7185   -1.4963 H   0  0  0  0  0  0  0  0  0  0  0  0
   -1.2230   -0.7356   -1.4317 H   0  0  0  0  0  0  0  0  0  0  0  0
   -1.2583   -1.8535   -0.0470 H   0  0  0  0  0  0  0  0  0  0  0  0
   -4.4500   -0.0609    0.1748 H   0  0  0  0  0  0  0  0  0  0  0  0
    4.4633   -0.0241    0.1525 H   0  0  0  0  0  0  0  0  0  0  0  0
  1  2  1  0  0  0  0
  1 12  2  0  0  0  0
  1 13  1  0  0  0  0
  2  3  1  0  0  0  0
  2 14  1  0  0  0  0
  2 15  1  0  0  0  0
  3  4  1  0  0  0  0
  3  5  1  0  0  0  0
  3  8  1  0  0  0  0
  4 16  1  0  0  0  0
  5  6  2  0  0  0  0
  5  7  1  0  0  0  0
  7 17  1  0  0  0  0
  8  9  1  0  0  0  0
  8 18  1  0  0  0  0
  8 19  1  0  0  0  0
  9 10  2  0  0  0  0
  9 11  1  0  0  0  0
 11 20  1  0  0  0  0
 13 21  1  0  0  0  0
M  END
