C21H28O5
 OpenBabel01061902303D

 54 57  0  0  0  0  0  0  0  0999 V2000
    0.8586   -1.2005   -0.6229 C   0  0  1  0  0  0  0  0  0  0  0  0
   -0.4653   -1.0099    0.0896 C   0  0  1  0  0  0  0  0  0  0  0  0
    1.7413    0.0376   -0.3069 C   0  0  2  0  0  0  0  0  0  0  0  0
   -1.1794    0.1833   -0.5672 C   0  0  1  0  0  0  0  0  0  0  0  0
    3.1394   -0.4080   -0.7296 C   0  0  1  0  0  0  0  0  0  0  0  0
   -2.4477    0.5019    0.2288 C   0  0  1  0  0  0  0  0  0  0  0  0
    4.7357    1.5894   -0.2047 C   0  0  0  0  0  0  0  0  0  0  0  0
    1.7182    0.3244    1.1958 C   0  0  0  0  0  0  0  0  0  0  0  0
   -2.0306    0.9186    1.6407 C   0  0  0  0  0  0  0  0  0  0  0  0
    4.2466   -0.3283   -2.4234 H   0  0  0  0  0  0  0  0  0  0  0  0
    6.0988    2.8461    0.6100 H   0  0  0  0  0  0  0  0  0  0  0  0
   -0.6744    2.4672   -0.2588 O   0  0  0  0  0  0  0  0  0  0  0  0
    4.5683   -0.3363    1.1418 O   0  0  0  0  0  0  0  0  0  0  0  0
   -6.3605    0.4482   -0.8777 O   0  0  0  0  0  0  0  0  0  0  0  0
    1.7279   -2.3484   -0.0936 C   0  0  0  0  0  0  0  0  0  0  0  0
   -1.3524   -2.2471   -0.0505 C   0  0  0  0  0  0  0  0  0  0  0  0
    1.1683    1.2165   -1.0776 C   0  0  0  0  0  0  0  0  0  0  0  0
    3.1567   -1.9448   -0.5454 C   0  0  0  0  0  0  0  0  0  0  0  0
   -2.6299   -2.0334    0.7674 C   0  0  0  0  0  0  0  0  0  0  0  0
   -3.1616    1.6810   -0.4067 C   0  0  0  0  0  0  0  0  0  0  0  0
   -4.6135    1.7796    0.0606 C   0  0  0  0  0  0  0  0  0  0  0  0
    3.3735   -0.0696   -2.0981 O   0  0  0  0  0  0  0  0  0  0  0  0
    5.6987    1.9815    0.7756 O   0  0  0  0  0  0  0  0  0  0  0  0
    4.1799    0.2345    0.1510 C   0  0  0  0  0  0  0  0  0  0  0  0
   -0.2684    1.3833   -0.6033 C   0  0  0  0  0  0  0  0  0  0  0  0
   -5.2943    0.4736   -0.2993 C   0  0  0  0  0  0  0  0  0  0  0  0
   -4.5975   -0.7575    0.0880 C   0  0  0  0  0  0  0  0  0  0  0  0
   -3.2882   -0.7361    0.3353 C   0  0  0  0  0  0  0  0  0  0  0  0
    0.7011   -1.2923   -1.6975 H   0  0  0  0  0  0  0  0  0  0  0  0
   -0.2865   -0.7949    1.1431 H   0  0  0  0  0  0  0  0  0  0  0  0
   -1.4525   -0.0791   -1.5893 H   0  0  0  0  0  0  0  0  0  0  0  0
    1.6696   -2.4061    0.9933 H   0  0  0  0  0  0  0  0  0  0  0  0
    1.4336   -3.2950   -0.5469 H   0  0  0  0  0  0  0  0  0  0  0  0
   -1.6104   -2.3949   -1.0991 H   0  0  0  0  0  0  0  0  0  0  0  0
   -0.8210   -3.1220    0.3239 H   0  0  0  0  0  0  0  0  0  0  0  0
    1.7406    2.1185   -0.8609 H   0  0  0  0  0  0  0  0  0  0  0  0
    1.1871    1.0084   -2.1474 H   0  0  0  0  0  0  0  0  0  0  0  0
    2.0051   -0.5744    1.7417 H   0  0  0  0  0  0  0  0  0  0  0  0
    2.4196    1.1271    1.4233 H   0  0  0  0  0  0  0  0  0  0  0  0
    0.7134    0.6248    1.4929 H   0  0  0  0  0  0  0  0  0  0  0  0
    3.4021   -2.4318   -1.4892 H   0  0  0  0  0  0  0  0  0  0  0  0
    3.8829   -2.2217    0.2188 H   0  0  0  0  0  0  0  0  0  0  0  0
   -3.3149   -2.8639    0.5965 H   0  0  0  0  0  0  0  0  0  0  0  0
   -2.3792   -1.9793    1.8268 H   0  0  0  0  0  0  0  0  0  0  0  0
   -2.6388    2.5994   -0.1395 H   0  0  0  0  0  0  0  0  0  0  0  0
   -3.1437    1.5656   -1.4904 H   0  0  0  0  0  0  0  0  0  0  0  0
   -1.3907    1.7993    1.5854 H   0  0  0  0  0  0  0  0  0  0  0  0
   -2.9188    1.1511    2.2282 H   0  0  0  0  0  0  0  0  0  0  0  0
   -1.4851    0.1023    2.1142 H   0  0  0  0  0  0  0  0  0  0  0  0
    3.9262    2.3187   -0.2309 H   0  0  0  0  0  0  0  0  0  0  0  0
    5.2128    1.5408   -1.1835 H   0  0  0  0  0  0  0  0  0  0  0  0
   -5.1467   -1.6835    0.1729 H   0  0  0  0  0  0  0  0  0  0  0  0
   -4.6461    1.9295    1.1397 H   0  0  0  0  0  0  0  0  0  0  0  0
   -5.1100    2.6079   -0.4448 H   0  0  0  0  0  0  0  0  0  0  0  0
  1  2  1  0  0  0  0
  1  3  1  0  0  0  0
  1 15  1  0  0  0  0
  1 29  1  6  0  0  0
  2  4  1  0  0  0  0
  2 16  1  0  0  0  0
  2 30  1  1  0  0  0
  3  5  1  0  0  0  0
  3 17  1  0  0  0  0
  3  8  1  1  0  0  0
  4  6  1  0  0  0  0
  4 25  1  0  0  0  0
  4 31  1  6  0  0  0
  5 24  1  1  0  0  0
  5 22  1  0  0  0  0
  5 18  1  0  0  0  0
  6 28  1  0  0  0  0
  6 20  1  0  0  0  0
  6  9  1  1  0  0  0
  7 24  1  0  0  0  0
  7 23  1  0  0  0  0
  7 50  1  0  0  0  0
  7 51  1  0  0  0  0
  8 38  1  0  0  0  0
  8 39  1  0  0  0  0
  8 40  1  0  0  0  0
  9 47  1  0  0  0  0
  9 48  1  0  0  0  0
  9 49  1  0  0  0  0
 10 22  1  0  0  0  0
 11 23  1  0  0  0  0
 12 25  2  0  0  0  0
 13 24  2  0  0  0  0
 14 26  2  0  0  0  0
 15 18  1  0  0  0  0
 15 32  1  0  0  0  0
 15 33  1  0  0  0  0
 16 19  1  0  0  0  0
 16 34  1  0  0  0  0
 16 35  1  0  0  0  0
 17 25  1  0  0  0  0
 17 36  1  0  0  0  0
 17 37  1  0  0  0  0
 18 41  1  0  0  0  0
 18 42  1  0  0  0  0
 19 28  1  0  0  0  0
 19 43  1  0  0  0  0
 19 44  1  0  0  0  0
 20 21  1  0  0  0  0
 20 45  1  0  0  0  0
 20 46  1  0  0  0  0
 21 26  1  0  0  0  0
 21 53  1  0  0  0  0
 21 54  1  0  0  0  0
 26 27  1  0  0  0  0
 27 28  2  0  0  0  0
 27 52  1  0  0  0  0
M  END
