C9H6O2
 OpenBabel01061902303D

 17 18  0  0  0  0  0  0  0  0999 V2000
   -1.4686   -1.2851    0.0005 O   0  0  0  0  0  0  0  0  0  0  0  0
   -2.5201   -0.4514    0.0001 C   0  0  0  0  0  0  0  0  0  0  0  0
   -3.6457   -0.9161    0.0002 O   0  0  0  0  0  0  0  0  0  0  0  0
   -2.3548    0.9507    0.0000 C   0  0  0  0  0  0  0  0  0  0  0  0
   -1.1064    1.4827   -0.0001 C   0  0  0  0  0  0  0  0  0  0  0  0
    0.0371    0.5651   -0.0002 C   0  0  0  0  0  0  0  0  0  0  0  0
    1.3490    1.0478    0.0001 C   0  0  0  0  0  0  0  0  0  0  0  0
    2.3950    0.1677    0.0005 C   0  0  0  0  0  0  0  0  0  0  0  0
    2.1641   -1.2001    0.0002 C   0  0  0  0  0  0  0  0  0  0  0  0
    0.8769   -1.6965   -0.0006 C   0  0  0  0  0  0  0  0  0  0  0  0
   -0.2009   -0.8207    0.0004 C   0  0  0  0  0  0  0  0  0  0  0  0
   -3.2193    1.5980   -0.0002 H   0  0  0  0  0  0  0  0  0  0  0  0
   -0.9592    2.5526   -0.0005 H   0  0  0  0  0  0  0  0  0  0  0  0
    1.5354    2.1116   -0.0003 H   0  0  0  0  0  0  0  0  0  0  0  0
    3.4087    0.5401    0.0008 H   0  0  0  0  0  0  0  0  0  0  0  0
    3.0005   -1.8833    0.0001 H   0  0  0  0  0  0  0  0  0  0  0  0
    0.7079   -2.7632   -0.0016 H   0  0  0  0  0  0  0  0  0  0  0  0
  1  2  1  0  0  0  0
  1 11  1  0  0  0  0
  2  3  2  0  0  0  0
  2  4  1  0  0  0  0
  4  5  2  0  0  0  0
  4 12  1  0  0  0  0
  5  6  1  0  0  0  0
  5 13  1  0  0  0  0
  6  7  2  0  0  0  0
  6 11  1  0  0  0  0
  7  8  1  0  0  0  0
  7 14  1  0  0  0  0
  8  9  2  0  0  0  0
  8 15  1  0  0  0  0
  9 10  1  0  0  0  0
  9 16  1  0  0  0  0
 10 11  2  0  0  0  0
 10 17  1  0  0  0  0
M  END
