C9H13O2
 OpenBabel01061902323D

 24 23  0  0  0  0  0  0  0  0999 V2000
  -12.9513   -0.0570   -0.0107 O   0  5  0  0  0  0  0  0  0  0  0  0
  -11.9907   -1.1680   -0.0432 O   0  0  0  0  0  0  0  0  0  0  0  0
    1.6994   -0.1553    0.1784 C   0  0  0  0  0  0  0  0  0  0  0  0
    1.7152   -1.3981    0.7833 C   0  0  0  0  0  0  0  0  0  0  0  0
    2.7740   -2.2596    0.5652 C   0  0  0  0  0  0  0  0  0  0  0  0
    3.8169   -1.8784   -0.2583 C   0  0  0  0  0  0  0  0  0  0  0  0
    3.8007   -0.6360   -0.8639 C   0  0  0  0  0  0  0  0  0  0  0  0
    2.7425    0.2261   -0.6447 C   0  0  0  0  0  0  0  0  0  0  0  0
    0.5421    0.7814    0.4112 C   0  0  0  0  0  0  0  0  0  0  0  0
    1.0535    2.0757    1.0470 C   0  0  0  0  0  0  0  0  0  0  0  0
   -0.1320    1.1010   -0.9246 C   0  0  0  0  0  0  0  0  0  0  0  0
  -11.2170   -1.0028   -0.5992 H   0  0  0  0  0  0  0  0  0  0  0  0
    0.9004   -1.6959    1.4267 H   0  0  0  0  0  0  0  0  0  0  0  0
    2.7867   -3.2304    1.0384 H   0  0  0  0  0  0  0  0  0  0  0  0
    4.6445   -2.5512   -0.4281 H   0  0  0  0  0  0  0  0  0  0  0  0
    4.6158   -0.3379   -1.5067 H   0  0  0  0  0  0  0  0  0  0  0  0
    2.7300    1.1970   -1.1176 H   0  0  0  0  0  0  0  0  0  0  0  0
   -0.1790    0.3092    1.0783 H   0  0  0  0  0  0  0  0  0  0  0  0
    1.7746    2.5480    0.3799 H   0  0  0  0  0  0  0  0  0  0  0  0
    0.2164    2.7532    1.2154 H   0  0  0  0  0  0  0  0  0  0  0  0
    1.5337    1.8480    1.9986 H   0  0  0  0  0  0  0  0  0  0  0  0
   -0.9691    1.7785   -0.7562 H   0  0  0  0  0  0  0  0  0  0  0  0
    0.5891    1.5733   -1.5917 H   0  0  0  0  0  0  0  0  0  0  0  0
   -0.4963    0.1790   -1.3775 H   0  0  0  0  0  0  0  0  0  0  0  0
  1  2  1  0  0  0  0
  2 12  1  0  0  0  0
  3  4  2  0  0  0  0
  3  8  1  0  0  0  0
  3  9  1  0  0  0  0
  4  5  1  0  0  0  0
  4 13  1  0  0  0  0
  5  6  2  0  0  0  0
  5 14  1  0  0  0  0
  6  7  1  0  0  0  0
  6 15  1  0  0  0  0
  7  8  2  0  0  0  0
  7 16  1  0  0  0  0
  8 17  1  0  0  0  0
  9 10  1  0  0  0  0
  9 11  1  0  0  0  0
  9 18  1  0  0  0  0
 10 19  1  0  0  0  0
 10 20  1  0  0  0  0
 10 21  1  0  0  0  0
 11 22  1  0  0  0  0
 11 23  1  0  0  0  0
 11 24  1  0  0  0  0
M  CHG  1   1  -1
M  END
