C4H3NO2
 OpenBabel01061902323D

 10  9  0  0  0  0  0  0  0  0999 V2000
   -2.6810   -0.1624    0.0000 C   0  0  0  0  0  0  0  0  0  0  0  0
   -3.6812    0.3762   -0.0000 N   0  0  0  0  0  0  0  0  0  0  0  0
   -1.4880   -0.8048    0.0000 O   0  0  0  0  0  0  0  0  0  0  0  0
   -0.4203    0.0203    0.0000 C   0  0  0  0  0  0  0  0  0  0  0  0
    0.9389   -0.5372   -0.0000 C   0  0  0  0  0  0  0  0  0  0  0  0
    1.9921    0.2768    0.0000 C   0  0  0  0  0  0  0  0  0  0  0  0
   -0.5831    1.2246    0.0000 O   0  0  0  0  0  0  0  0  0  0  0  0
    1.0835   -1.6075   -0.0000 H   0  0  0  0  0  0  0  0  0  0  0  0
    1.8475    1.3471    0.0000 H   0  0  0  0  0  0  0  0  0  0  0  0
    2.9914   -0.1331   -0.0000 H   0  0  0  0  0  0  0  0  0  0  0  0
  1  2  3  0  0  0  0
  1  3  1  0  0  0  0
  3  4  1  0  0  0  0
  4  5  1  0  0  0  0
  4  7  2  0  0  0  0
  5  6  2  0  0  0  0
  5  8  1  0  0  0  0
  6  9  1  0  0  0  0
  6 10  1  0  0  0  0
M  END
