C16H20Br2O2
 OpenBabel01061902343D

 40 42  0  0  0  0  0  0  0  0999 V2000
   -1.0037   -0.8885    0.3731 C   0  0  1  0  0  0  0  0  0  0  0  0
   -0.5823   -1.0761   -1.0911 C   0  0  1  0  0  0  0  0  0  0  0  0
   -2.7457    0.7532   -0.3322 C   0  0  1  0  0  0  0  0  0  0  0  0
    2.4737   -0.1239    1.5759 C   0  0  0  0  0  0  0  0  0  0  0  0
    2.5266    0.8316   -1.0186 C   0  0  0  0  0  0  0  0  0  0  0  0
    0.0246   -2.4661   -1.2924 C   0  0  0  0  0  0  0  0  0  0  0  0
   -1.9237    0.7410    2.0280 C   0  0  0  0  0  0  0  0  0  0  0  0
   -0.4299    1.5358    0.1886 C   0  0  0  0  0  0  0  0  0  0  0  0
    5.3085    0.1090    1.9170 H   0  0  0  0  0  0  0  0  0  0  0  0
    3.5768    0.5789    1.1202 C   0  0  0  0  0  0  0  0  0  0  0  0
    3.6017    1.0566   -0.1828 C   0  0  0  0  0  0  0  0  0  0  0  0
    0.2141   -1.1242    1.2664 C   0  0  0  0  0  0  0  0  0  0  0  0
   -1.8163   -0.8833   -1.9806 C   0  0  0  0  0  0  0  0  0  0  0  0
   -2.3521    0.5379   -1.7945 C   0  0  0  0  0  0  0  0  0  0  0  0
    4.6331    0.8004    1.9476 O   0  0  0  0  0  0  0  0  0  0  0  0
    1.3951   -0.3512    0.7372 C   0  0  0  0  0  0  0  0  0  0  0  0
    1.4172    0.1276   -0.5606 C   0  0  0  0  0  0  0  0  0  0  0  0
    0.3779   -0.0668   -1.4133 O   0  0  0  0  0  0  0  0  0  0  0  0
   -1.5251    0.5359    0.5652 C   0  0  0  0  0  0  0  0  0  0  0  0
   -3.4130    2.5875   -0.0971 Br  0  0  0  0  0  0  0  0  0  0  0  0
    5.1064    2.0137   -0.8121 Br  0  0  0  0  0  0  0  0  0  0  0  0
   -1.7896   -1.6018    0.6213 H   0  0  0  0  0  0  0  0  0  0  0  0
   -0.0108   -0.7927    2.2801 H   0  0  0  0  0  0  0  0  0  0  0  0
    0.4535   -2.1875    1.2792 H   0  0  0  0  0  0  0  0  0  0  0  0
   -3.5277    0.0447   -0.0591 H   0  0  0  0  0  0  0  0  0  0  0  0
   -1.5405   -1.0349   -3.0242 H   0  0  0  0  0  0  0  0  0  0  0  0
   -2.5851   -1.6023   -1.6979 H   0  0  0  0  0  0  0  0  0  0  0  0
   -3.2256    0.6823   -2.4303 H   0  0  0  0  0  0  0  0  0  0  0  0
   -1.5801    1.2557   -2.0717 H   0  0  0  0  0  0  0  0  0  0  0  0
    0.8935   -2.5805   -0.6443 H   0  0  0  0  0  0  0  0  0  0  0  0
   -0.7166   -3.2257   -1.0437 H   0  0  0  0  0  0  0  0  0  0  0  0
    0.3292   -2.5825   -2.3324 H   0  0  0  0  0  0  0  0  0  0  0  0
   -1.0548    0.5832    2.6669 H   0  0  0  0  0  0  0  0  0  0  0  0
   -2.2953    1.7565    2.1644 H   0  0  0  0  0  0  0  0  0  0  0  0
   -2.7049    0.0293    2.2949 H   0  0  0  0  0  0  0  0  0  0  0  0
   -0.2283    1.4683   -0.8805 H   0  0  0  0  0  0  0  0  0  0  0  0
   -0.7600    2.5454    0.4330 H   0  0  0  0  0  0  0  0  0  0  0  0
    0.4788    1.3059    0.7449 H   0  0  0  0  0  0  0  0  0  0  0  0
    2.4546   -0.4966    2.5894 H   0  0  0  0  0  0  0  0  0  0  0  0
    2.5464    1.2038   -2.0322 H   0  0  0  0  0  0  0  0  0  0  0  0
  1  2  1  0  0  0  0
  1 19  1  0  0  0  0
  1 12  1  0  0  0  0
  1 22  1  1  0  0  0
  2 18  1  0  0  0  0
  2 13  1  0  0  0  0
  2  6  1  6  0  0  0
  3 20  1  0  0  0  0
  3 19  1  0  0  0  0
  3 14  1  0  0  0  0
  3 25  1  1  0  0  0
  4 16  1  0  0  0  0
  4 10  2  0  0  0  0
  4 39  1  0  0  0  0
  5 17  1  0  0  0  0
  5 11  2  0  0  0  0
  5 40  1  0  0  0  0
  6 30  1  0  0  0  0
  6 31  1  0  0  0  0
  6 32  1  0  0  0  0
  7 19  1  0  0  0  0
  7 33  1  0  0  0  0
  7 34  1  0  0  0  0
  7 35  1  0  0  0  0
  8 19  1  0  0  0  0
  8 36  1  0  0  0  0
  8 37  1  0  0  0  0
  8 38  1  0  0  0  0
  9 15  1  0  0  0  0
 10 15  1  0  0  0  0
 10 11  1  0  0  0  0
 11 21  1  0  0  0  0
 12 16  1  0  0  0  0
 12 23  1  0  0  0  0
 12 24  1  0  0  0  0
 13 14  1  0  0  0  0
 13 26  1  0  0  0  0
 13 27  1  0  0  0  0
 14 28  1  0  0  0  0
 14 29  1  0  0  0  0
 16 17  2  0  0  0  0
 17 18  1  0  0  0  0
M  END
