C3H7NO2S
 OpenBabel01061902343D

 14 13  0  0  0  0  0  0  0  0999 V2000
    0.2161    1.6151   -0.4145 N   0  0  0  0  0  0  0  0  0  0  0  0
   -0.0327    0.1694   -0.4934 C   0  0  1  0  0  0  0  0  0  0  0  0
    0.1197   -0.1700   -1.5179 H   0  0  0  0  0  0  0  0  0  0  0  0
    0.9343   -0.5660    0.4367 C   0  0  0  0  0  0  0  0  0  0  0  0
    2.6415   -0.2177   -0.0682 S   0  0  0  0  0  0  0  0  0  0  0  0
   -1.4509   -0.1199   -0.0740 C   0  0  0  0  0  0  0  0  0  0  0  0
   -2.0622    0.6866    0.5861 O   0  0  0  0  0  0  0  0  0  0  0  0
   -2.0351   -1.2736   -0.4339 O   0  0  0  0  0  0  0  0  0  0  0  0
   -0.3659    2.1183   -1.0673 H   0  0  0  0  0  0  0  0  0  0  0  0
    0.0812    1.9543    0.5262 H   0  0  0  0  0  0  0  0  0  0  0  0
    0.7819   -0.2265    1.4612 H   0  0  0  0  0  0  0  0  0  0  0  0
    0.7497   -1.6386    0.3781 H   0  0  0  0  0  0  0  0  0  0  0  0
    3.3686   -0.9167    0.8216 H   0  0  0  0  0  0  0  0  0  0  0  0
   -2.9460   -1.4143   -0.1413 H   0  0  0  0  0  0  0  0  0  0  0  0
  1  2  1  0  0  0  0
  1  9  1  0  0  0  0
  1 10  1  0  0  0  0
  2  3  1  6  0  0  0
  2  4  1  0  0  0  0
  2  6  1  0  0  0  0
  4  5  1  0  0  0  0
  4 11  1  0  0  0  0
  4 12  1  0  0  0  0
  5 13  1  0  0  0  0
  6  7  2  0  0  0  0
  6  8  1  0  0  0  0
  8 14  1  0  0  0  0
M  END
