C8H18O2
 OpenBabel01061902413D

 28 27  0  0  0  0  0  0  0  0999 V2000
   -1.8535   -0.0000   -0.0055 C   0  0  0  0  0  0  0  0  0  0  0  0
   -2.0652   -1.2492   -0.8631 C   0  0  0  0  0  0  0  0  0  0  0  0
   -2.0652    1.2492   -0.8631 C   0  0  0  0  0  0  0  0  0  0  0  0
   -2.8545    0.0000    1.1515 C   0  0  0  0  0  0  0  0  0  0  0  0
   -0.5229    0.0000    0.5158 O   0  0  0  0  0  0  0  0  0  0  0  0
    0.5229   -0.0000   -0.5158 O   0  0  0  0  0  0  0  0  0  0  0  0
    1.8535    0.0000    0.0055 C   0  0  0  0  0  0  0  0  0  0  0  0
    2.0652   -1.2492    0.8631 C   0  0  0  0  0  0  0  0  0  0  0  0
    2.8545   -0.0000   -1.1515 C   0  0  0  0  0  0  0  0  0  0  0  0
    2.0652    1.2492    0.8631 C   0  0  0  0  0  0  0  0  0  0  0  0
   -1.3520   -1.2492   -1.6874 H   0  0  0  0  0  0  0  0  0  0  0  0
   -1.9144   -2.1392   -0.2521 H   0  0  0  0  0  0  0  0  0  0  0  0
   -3.0801   -1.2492   -1.2607 H   0  0  0  0  0  0  0  0  0  0  0  0
   -3.0801    1.2492   -1.2608 H   0  0  0  0  0  0  0  0  0  0  0  0
   -1.9144    2.1392   -0.2522 H   0  0  0  0  0  0  0  0  0  0  0  0
   -1.3520    1.2492   -1.6874 H   0  0  0  0  0  0  0  0  0  0  0  0
   -2.7037   -0.8900    1.7625 H   0  0  0  0  0  0  0  0  0  0  0  0
   -2.7037    0.8900    1.7625 H   0  0  0  0  0  0  0  0  0  0  0  0
   -3.8694    0.0000    0.7539 H   0  0  0  0  0  0  0  0  0  0  0  0
    1.9144   -2.1392    0.2522 H   0  0  0  0  0  0  0  0  0  0  0  0
    3.0801   -1.2492    1.2608 H   0  0  0  0  0  0  0  0  0  0  0  0
    1.3520   -1.2492    1.6874 H   0  0  0  0  0  0  0  0  0  0  0  0
    2.7037    0.8900   -1.7625 H   0  0  0  0  0  0  0  0  0  0  0  0
    3.8694   -0.0000   -0.7539 H   0  0  0  0  0  0  0  0  0  0  0  0
    2.7037   -0.8900   -1.7625 H   0  0  0  0  0  0  0  0  0  0  0  0
    1.3520    1.2492    1.6874 H   0  0  0  0  0  0  0  0  0  0  0  0
    3.0801    1.2492    1.2607 H   0  0  0  0  0  0  0  0  0  0  0  0
    1.9144    2.1392    0.2521 H   0  0  0  0  0  0  0  0  0  0  0  0
  1  2  1  0  0  0  0
  1  3  1  0  0  0  0
  1  4  1  0  0  0  0
  1  5  1  0  0  0  0
  2 11  1  0  0  0  0
  2 12  1  0  0  0  0
  2 13  1  0  0  0  0
  3 14  1  0  0  0  0
  3 15  1  0  0  0  0
  3 16  1  0  0  0  0
  4 17  1  0  0  0  0
  4 18  1  0  0  0  0
  4 19  1  0  0  0  0
  5  6  1  0  0  0  0
  6  7  1  0  0  0  0
  7  8  1  0  0  0  0
  7  9  1  0  0  0  0
  7 10  1  0  0  0  0
  8 20  1  0  0  0  0
  8 21  1  0  0  0  0
  8 22  1  0  0  0  0
  9 23  1  0  0  0  0
  9 24  1  0  0  0  0
  9 25  1  0  0  0  0
 10 26  1  0  0  0  0
 10 27  1  0  0  0  0
 10 28  1  0  0  0  0
M  END
