CH2N2
 OpenBabel01061902373D

  5  4  0  0  0  0  0  0  0  0999 V2000
   -0.7412    0.0000   -0.0008 N   0  3  0  0  0  0  0  0  0  0  0  0
   -1.8652    0.0000   -0.0006 N   0  5  0  0  0  0  0  0  0  0  0  0
    0.5088    0.0000   -0.0010 C   0  0  0  0  0  0  0  0  0  0  0  0
    1.0488    0.9353    0.0011 H   0  0  0  0  0  0  0  0  0  0  0  0
    1.0488   -0.9353    0.0011 H   0  0  0  0  0  0  0  0  0  0  0  0
  1  2  2  0  0  0  0
  1  3  2  0  0  0  0
  3  4  1  0  0  0  0
  3  5  1  0  0  0  0
M  CHG  2   1   1   2  -1
M  END
