C14H10O4
 OpenBabel01061902373D

 28 29  0  0  0  0  0  0  0  0999 V2000
   -1.5763    0.6974   -0.0011 C   0  0  0  0  0  0  0  0  0  0  0  0
   -2.9885    0.2621   -0.0004 C   0  0  0  0  0  0  0  0  0  0  0  0
   -4.0141    1.2093    0.0036 C   0  0  0  0  0  0  0  0  0  0  0  0
   -5.3302    0.7961    0.0043 C   0  0  0  0  0  0  0  0  0  0  0  0
   -5.6349   -0.5535    0.0015 C   0  0  0  0  0  0  0  0  0  0  0  0
   -4.6233   -1.4975   -0.0021 C   0  0  0  0  0  0  0  0  0  0  0  0
   -3.3029   -1.0980   -0.0095 C   0  0  0  0  0  0  0  0  0  0  0  0
   -1.3056    1.8821    0.0018 O   0  0  0  0  0  0  0  0  0  0  0  0
   -0.5915   -0.2168    0.0007 O   0  0  0  0  0  0  0  0  0  0  0  0
    0.5915    0.2168   -0.0001 O   0  0  0  0  0  0  0  0  0  0  0  0
    1.5763   -0.6974    0.0017 C   0  0  0  0  0  0  0  0  0  0  0  0
    2.9885   -0.2621    0.0010 C   0  0  0  0  0  0  0  0  0  0  0  0
    4.0141   -1.2093    0.0028 C   0  0  0  0  0  0  0  0  0  0  0  0
    5.3302   -0.7962    0.0022 C   0  0  0  0  0  0  0  0  0  0  0  0
    5.6349    0.5535    0.0002 C   0  0  0  0  0  0  0  0  0  0  0  0
    4.6233    1.4975   -0.0011 C   0  0  0  0  0  0  0  0  0  0  0  0
    3.3029    1.0980   -0.0072 C   0  0  0  0  0  0  0  0  0  0  0  0
    1.3056   -1.8821    0.0038 O   0  0  0  0  0  0  0  0  0  0  0  0
   -3.7776    2.2631    0.0065 H   0  0  0  0  0  0  0  0  0  0  0  0
   -6.1246    1.5278    0.0074 H   0  0  0  0  0  0  0  0  0  0  0  0
   -6.6670   -0.8716    0.0024 H   0  0  0  0  0  0  0  0  0  0  0  0
   -4.8680   -2.5494   -0.0035 H   0  0  0  0  0  0  0  0  0  0  0  0
   -2.5143   -1.8358   -0.0126 H   0  0  0  0  0  0  0  0  0  0  0  0
    3.7776   -2.2631    0.0050 H   0  0  0  0  0  0  0  0  0  0  0  0
    6.1246   -1.5278    0.0036 H   0  0  0  0  0  0  0  0  0  0  0  0
    6.6670    0.8716    0.0001 H   0  0  0  0  0  0  0  0  0  0  0  0
    4.8680    2.5494   -0.0019 H   0  0  0  0  0  0  0  0  0  0  0  0
    2.5143    1.8359   -0.0086 H   0  0  0  0  0  0  0  0  0  0  0  0
  1  2  1  0  0  0  0
  1  8  2  0  0  0  0
  1  9  1  0  0  0  0
  2  3  2  0  0  0  0
  2  7  1  0  0  0  0
  3  4  1  0  0  0  0
  3 19  1  0  0  0  0
  4  5  2  0  0  0  0
  4 20  1  0  0  0  0
  5  6  1  0  0  0  0
  5 21  1  0  0  0  0
  6  7  2  0  0  0  0
  6 22  1  0  0  0  0
  7 23  1  0  0  0  0
  9 10  1  0  0  0  0
 10 11  1  0  0  0  0
 11 12  1  0  0  0  0
 11 18  2  0  0  0  0
 12 13  2  0  0  0  0
 12 17  1  0  0  0  0
 13 14  1  0  0  0  0
 13 24  1  0  0  0  0
 14 15  2  0  0  0  0
 14 25  1  0  0  0  0
 15 16  1  0  0  0  0
 15 26  1  0  0  0  0
 16 17  2  0  0  0  0
 16 27  1  0  0  0  0
 17 28  1  0  0  0  0
M  END
