C12H8Cl6O
 OpenBabel01061902393D

 27 31  0  0  0  0  0  0  0  0999 V2000
    1.8362   -2.8307    0.9207 Cl  0  0  0  0  0  0  0  0  0  0  0  0
    1.8349    2.8319    0.9179 Cl  0  0  0  0  0  0  0  0  0  0  0  0
    3.0772    0.0014    2.4722 Cl  0  0  0  0  0  0  0  0  0  0  0  0
    3.4538    0.0004   -0.5017 Cl  0  0  0  0  0  0  0  0  0  0  0  0
   -0.6358   -1.6653    2.9285 Cl  0  0  0  0  0  0  0  0  0  0  0  0
   -0.6332    1.6669    2.9303 Cl  0  0  0  0  0  0  0  0  0  0  0  0
   -1.6550    0.0040    1.1420 O   0  0  0  0  0  0  0  0  0  0  0  0
   -1.0751   -0.0012   -2.0845 C   0  0  0  0  0  0  0  0  0  0  0  0
   -0.8011   -1.1636   -1.0328 C   0  0  2  0  0  0  0  0  0  0  0  0
   -0.8003    1.1629   -1.0348 C   0  0  1  0  0  0  0  0  0  0  0  0
   -1.8733   -0.7807   -0.0002 C   0  0  2  0  0  0  0  0  0  0  0  0
   -1.8773    0.7817   -0.0044 C   0  0  1  0  0  0  0  0  0  0  0  0
    0.2657   -0.6627    1.8324 C   0  0  0  0  0  0  0  0  0  0  0  0
    0.2661    0.6639    1.8325 C   0  0  0  0  0  0  0  0  0  0  0  0
    1.1932   -1.1510    0.7257 C   0  0  1  0  0  0  0  0  0  0  0  0
    1.1927    1.1518    0.7249 C   0  0  2  0  0  0  0  0  0  0  0  0
    2.2806    0.0006    0.8599 C   0  0  0  0  0  0  0  0  0  0  0  0
    0.6259   -0.7838   -0.6494 C   0  0  2  0  0  0  0  0  0  0  0  0
    0.6254    0.7828   -0.6497 C   0  0  1  0  0  0  0  0  0  0  0  0
    1.3372   -1.1346   -1.4545 H   0  0  0  0  0  0  0  0  0  0  0  0
    1.3380    1.1326   -1.4548 H   0  0  0  0  0  0  0  0  0  0  0  0
   -0.9236   -2.1708   -1.4778 H   0  0  0  0  0  0  0  0  0  0  0  0
   -0.9226    2.1695   -1.4809 H   0  0  0  0  0  0  0  0  0  0  0  0
   -2.8392   -1.3294   -0.0782 H   0  0  0  0  0  0  0  0  0  0  0  0
   -2.8438    1.3262   -0.0881 H   0  0  0  0  0  0  0  0  0  0  0  0
   -0.3426   -0.0020   -2.8785 H   0  0  0  0  0  0  0  0  0  0  0  0
   -2.1038   -0.0010   -2.4164 H   0  0  0  0  0  0  0  0  0  0  0  0
  3 17  1  0  0  0  0
  4 17  1  0  0  0  0
  5 13  1  0  0  0  0
  6 14  1  0  0  0  0
  7 11  1  0  0  0  0
  7 12  1  0  0  0  0
  8  9  1  0  0  0  0
  8 10  1  0  0  0  0
  8 26  1  0  0  0  0
  8 27  1  0  0  0  0
  9 18  1  0  0  0  0
  9 11  1  0  0  0  0
  9 22  1  6  0  0  0
 10 19  1  0  0  0  0
 10 12  1  0  0  0  0
 10 23  1  6  0  0  0
 11 12  1  0  0  0  0
 11 24  1  6  0  0  0
 12 25  1  6  0  0  0
 13 15  1  0  0  0  0
 13 14  2  0  0  0  0
 14 16  1  0  0  0  0
 15 18  1  0  0  0  0
 15 17  1  0  0  0  0
 15  1  1  1  0  0  0
 16 19  1  0  0  0  0
 16  2  1  1  0  0  0
 16 17  1  0  0  0  0
 18 19  1  0  0  0  0
 18 20  1  6  0  0  0
 19 21  1  6  0  0  0
M  END
