C4H4O2
 OpenBabel01061902393D

 10 10  0  0  0  0  0  0  0  0999 V2000
    2.7601   -0.4087   -0.2881 O   0  0  0  0  0  0  0  0  0  0  0  0
    0.5758    0.7820    0.2475 C   0  0  0  0  0  0  0  0  0  0  0  0
   -0.4529   -0.3164    0.0436 C   0  0  0  0  0  0  0  0  0  0  0  0
    1.5978   -0.3202    0.0304 C   0  0  0  0  0  0  0  0  0  0  0  0
    0.5823   -1.1598    0.3646 O   0  0  0  0  0  0  0  0  0  0  0  0
   -1.7250   -0.4134   -0.2835 C   0  0  0  0  0  0  0  0  0  0  0  0
    0.5722    1.5423   -0.5335 H   0  0  0  0  0  0  0  0  0  0  0  0
    0.5831    1.2003    1.2540 H   0  0  0  0  0  0  0  0  0  0  0  0
   -2.2997    0.4780   -0.4868 H   0  0  0  0  0  0  0  0  0  0  0  0
   -2.1934   -1.3844   -0.3483 H   0  0  0  0  0  0  0  0  0  0  0  0
  1  4  2  0  0  0  0
  2  3  1  0  0  0  0
  2  4  1  0  0  0  0
  2  7  1  0  0  0  0
  2  8  1  0  0  0  0
  3  5  1  0  0  0  0
  3  6  2  0  0  0  0
  4  5  1  0  0  0  0
  6  9  1  0  0  0  0
  6 10  1  0  0  0  0
M  END
