N2O4
 OpenBabel01061902403D

  6  5  0  0  0  0  0  0  0  0999 V2000
    1.3095    1.0548   -0.0007 O   0  0  0  0  0  0  0  0  0  0  0  0
   -1.3095    1.0548    0.0015 O   0  0  0  0  0  0  0  0  0  0  0  0
    1.3095   -1.0548    0.0018 O   0  5  0  0  0  0  0  0  0  0  0  0
   -1.3095   -1.0548   -0.0010 O   0  5  0  0  0  0  0  0  0  0  0  0
    0.7005   -0.0000   -0.0015 N   0  3  0  0  0  0  0  0  0  0  0  0
   -0.7005    0.0000   -0.0003 N   0  3  0  0  0  0  0  0  0  0  0  0
  1  5  2  0  0  0  0
  2  6  2  0  0  0  0
  3  5  1  0  0  0  0
  4  6  1  0  0  0  0
  5  6  1  0  0  0  0
M  CHG  4   3  -1   4  -1   5   1   6   1
M  END
