C7H6N2O4
 OpenBabel01061902403D

 19 19  0  0  0  0  0  0  0  0999 V2000
   -2.6721   -0.0720   -0.0020 N   0  3  0  0  0  0  0  0  0  0  0  0
   -3.5460   -0.9204   -0.0028 O   0  0  0  0  0  0  0  0  0  0  0  0
   -2.9698    1.1090    0.0036 O   0  5  0  0  0  0  0  0  0  0  0  0
   -1.2482   -0.4763   -0.0015 C   0  0  0  0  0  0  0  0  0  0  0  0
   -0.2562    0.4867   -0.0005 C   0  0  0  0  0  0  0  0  0  0  0  0
    1.0734    0.1092   -0.0001 C   0  0  0  0  0  0  0  0  0  0  0  0
    1.4114   -1.2314   -0.0003 C   0  0  0  0  0  0  0  0  0  0  0  0
    0.4197   -2.1941   -0.0003 C   0  0  0  0  0  0  0  0  0  0  0  0
   -0.9103   -1.8165    0.0037 C   0  0  0  0  0  0  0  0  0  0  0  0
    2.1547    1.1589   -0.0001 C   0  0  0  0  0  0  0  0  0  0  0  0
   -0.6180    1.9220   -0.0004 N   0  3  0  0  0  0  0  0  0  0  0  0
   -0.7676    2.5122    1.0545 O   0  0  0  0  0  0  0  0  0  0  0  0
   -0.7661    2.5128   -1.0551 O   0  5  0  0  0  0  0  0  0  0  0  0
    2.4503   -1.5264   -0.0007 H   0  0  0  0  0  0  0  0  0  0  0  0
    0.6837   -3.2413   -0.0008 H   0  0  0  0  0  0  0  0  0  0  0  0
   -1.6853   -2.5687    0.0036 H   0  0  0  0  0  0  0  0  0  0  0  0
    2.4152    1.4122    1.0276 H   0  0  0  0  0  0  0  0  0  0  0  0
    3.0354    0.7733   -0.5136 H   0  0  0  0  0  0  0  0  0  0  0  0
    1.7956    2.0505   -0.5141 H   0  0  0  0  0  0  0  0  0  0  0  0
  1  2  2  0  0  0  0
  1  3  1  0  0  0  0
  1  4  1  0  0  0  0
  4  5  1  0  0  0  0
  4  9  2  0  0  0  0
  5  6  2  0  0  0  0
  5 11  1  0  0  0  0
  6  7  1  0  0  0  0
  6 10  1  0  0  0  0
  7  8  2  0  0  0  0
  7 14  1  0  0  0  0
  8  9  1  0  0  0  0
  8 15  1  0  0  0  0
  9 16  1  0  0  0  0
 10 17  1  0  0  0  0
 10 18  1  0  0  0  0
 10 19  1  0  0  0  0
 11 12  2  0  0  0  0
 11 13  1  0  0  0  0
M  CHG  4   1   1   3  -1  11   1  13  -1
M  END
