C4H4O2
 OpenBabel01061902413D

 10 10  0  0  0  0  0  0  0  0999 V2000
   -1.3419    0.0003    0.1771 O   0  0  0  0  0  0  0  0  0  0  0  0
   -0.6596   -1.1676    0.0186 C   0  0  0  0  0  0  0  0  0  0  0  0
    0.6590   -1.1680    0.0186 C   0  0  0  0  0  0  0  0  0  0  0  0
    1.3419   -0.0004    0.1771 O   0  0  0  0  0  0  0  0  0  0  0  0
    0.6597    1.1676    0.0186 C   0  0  0  0  0  0  0  0  0  0  0  0
   -0.6591    1.1680    0.0186 C   0  0  0  0  0  0  0  0  0  0  0  0
   -1.1992   -2.0947   -0.1069 H   0  0  0  0  0  0  0  0  0  0  0  0
    1.1981   -2.0953   -0.1069 H   0  0  0  0  0  0  0  0  0  0  0  0
    1.1994    2.0947   -0.1069 H   0  0  0  0  0  0  0  0  0  0  0  0
   -1.1982    2.0953   -0.1076 H   0  0  0  0  0  0  0  0  0  0  0  0
  1  2  1  0  0  0  0
  1  6  1  0  0  0  0
  2  3  2  0  0  0  0
  2  7  1  0  0  0  0
  3  4  1  0  0  0  0
  3  8  1  0  0  0  0
  4  5  1  0  0  0  0
  5  6  2  0  0  0  0
  5  9  1  0  0  0  0
  6 10  1  0  0  0  0
M  END
