C12H22O4
 OpenBabel01061902423D

 38 37  0  0  0  0  0  0  0  0999 V2000
    6.8652    0.0603   -0.0011 C   0  0  0  0  0  0  0  0  0  0  0  0
    5.5898   -0.7425   -0.0013 C   0  0  0  0  0  0  0  0  0  0  0  0
    4.3897    0.2065   -0.0007 C   0  0  0  0  0  0  0  0  0  0  0  0
    3.0949   -0.6085   -0.0010 C   0  0  0  0  0  0  0  0  0  0  0  0
    1.8949    0.3405   -0.0004 C   0  0  0  0  0  0  0  0  0  0  0  0
    0.6000   -0.4745   -0.0006 C   0  0  0  0  0  0  0  0  0  0  0  0
   -0.6000    0.4745    0.0000 C   0  0  0  0  0  0  0  0  0  0  0  0
   -1.8948   -0.3405   -0.0003 C   0  0  0  0  0  0  0  0  0  0  0  0
   -3.0949    0.6085    0.0003 C   0  0  0  0  0  0  0  0  0  0  0  0
   -4.3897   -0.2065    0.0001 C   0  0  0  0  0  0  0  0  0  0  0  0
   -5.5898    0.7425    0.0007 C   0  0  0  0  0  0  0  0  0  0  0  0
   -6.8652   -0.0603    0.0005 C   0  0  0  0  0  0  0  0  0  0  0  0
   -6.8190   -1.2677   -0.0001 O   0  0  0  0  0  0  0  0  0  0  0  0
   -8.0524    0.5659    0.0009 O   0  0  0  0  0  0  0  0  0  0  0  0
    6.8190    1.2677   -0.0005 O   0  0  0  0  0  0  0  0  0  0  0  0
    8.0524   -0.5659    0.0041 O   0  0  0  0  0  0  0  0  0  0  0  0
    5.5559   -1.3705   -0.8916 H   0  0  0  0  0  0  0  0  0  0  0  0
    5.5562   -1.3714    0.8883 H   0  0  0  0  0  0  0  0  0  0  0  0
    4.4236    0.8345    0.8896 H   0  0  0  0  0  0  0  0  0  0  0  0
    4.4234    0.8354   -0.8904 H   0  0  0  0  0  0  0  0  0  0  0  0
    3.0611   -1.2365   -0.8913 H   0  0  0  0  0  0  0  0  0  0  0  0
    3.0613   -1.2374    0.8887 H   0  0  0  0  0  0  0  0  0  0  0  0
    1.9287    0.9685    0.8899 H   0  0  0  0  0  0  0  0  0  0  0  0
    1.9285    0.9694   -0.8900 H   0  0  0  0  0  0  0  0  0  0  0  0
    0.5662   -1.1025   -0.8909 H   0  0  0  0  0  0  0  0  0  0  0  0
    0.5664   -1.1034    0.8891 H   0  0  0  0  0  0  0  0  0  0  0  0
   -0.5662    1.1025    0.8903 H   0  0  0  0  0  0  0  0  0  0  0  0
   -0.5664    1.1034   -0.8897 H   0  0  0  0  0  0  0  0  0  0  0  0
   -1.9287   -0.9685   -0.8905 H   0  0  0  0  0  0  0  0  0  0  0  0
   -1.9285   -0.9694    0.8894 H   0  0  0  0  0  0  0  0  0  0  0  0
   -3.0611    1.2365    0.8906 H   0  0  0  0  0  0  0  0  0  0  0  0
   -3.0613    1.2374   -0.8893 H   0  0  0  0  0  0  0  0  0  0  0  0
   -4.4236   -0.8345   -0.8902 H   0  0  0  0  0  0  0  0  0  0  0  0
   -4.4234   -0.8354    0.8898 H   0  0  0  0  0  0  0  0  0  0  0  0
   -5.5559    1.3705    0.8910 H   0  0  0  0  0  0  0  0  0  0  0  0
   -5.5562    1.3714   -0.8890 H   0  0  0  0  0  0  0  0  0  0  0  0
   -8.8427    0.0087    0.0007 H   0  0  0  0  0  0  0  0  0  0  0  0
    8.8427   -0.0087    0.0040 H   0  0  0  0  0  0  0  0  0  0  0  0
  1  2  1  0  0  0  0
  1 15  2  0  0  0  0
  1 16  1  0  0  0  0
  2  3  1  0  0  0  0
  2 17  1  0  0  0  0
  2 18  1  0  0  0  0
  3  4  1  0  0  0  0
  3 19  1  0  0  0  0
  3 20  1  0  0  0  0
  4  5  1  0  0  0  0
  4 21  1  0  0  0  0
  4 22  1  0  0  0  0
  5  6  1  0  0  0  0
  5 23  1  0  0  0  0
  5 24  1  0  0  0  0
  6  7  1  0  0  0  0
  6 25  1  0  0  0  0
  6 26  1  0  0  0  0
  7  8  1  0  0  0  0
  7 27  1  0  0  0  0
  7 28  1  0  0  0  0
  8  9  1  0  0  0  0
  8 29  1  0  0  0  0
  8 30  1  0  0  0  0
  9 10  1  0  0  0  0
  9 31  1  0  0  0  0
  9 32  1  0  0  0  0
 10 11  1  0  0  0  0
 10 33  1  0  0  0  0
 10 34  1  0  0  0  0
 11 12  1  0  0  0  0
 11 35  1  0  0  0  0
 11 36  1  0  0  0  0
 12 13  2  0  0  0  0
 12 14  1  0  0  0  0
 14 37  1  0  0  0  0
 16 38  1  0  0  0  0
M  END
