C2CaMgO6
 OpenBabel01061902423D

 10  6  0  0  0  0  0  0  0  0999 V2000
  -10.1462   -0.8689   -0.7863 O   0  0  0  0  0  0  0  0  0  0  0  0
   -9.4271    0.0122   -0.3312 C   0  0  0  0  0  0  0  0  0  0  0  0
   -8.3981   -0.2834    0.2641 O   0  5  0  0  0  0  0  0  0  0  0  0
   -9.7343    1.1892   -0.4759 O   0  5  0  0  0  0  0  0  0  0  0  0
    0.9071   -0.8764   -0.0755 O   0  0  0  0  0  0  0  0  0  0  0  0
    1.6262    0.0047    0.3795 C   0  0  0  0  0  0  0  0  0  0  0  0
    2.6552   -0.2910    0.9748 O   0  5  0  0  0  0  0  0  0  0  0  0
    1.3190    1.1817    0.2348 O   0  5  0  0  0  0  0  0  0  0  0  0
   11.2845   -0.1198    0.2634 Mg  0  2  0  0  0  0  0  0  0  0  0  0
   19.9138    0.0513   -0.4480 Ca  0  2  0  0  0  0  0  0  0  0  0  0
  1  2  2  0  0  0  0
  2  3  1  0  0  0  0
  2  4  1  0  0  0  0
  5  6  2  0  0  0  0
  6  7  1  0  0  0  0
  6  8  1  0  0  0  0
M  CHG  6   3  -1   4  -1   7  -1   8  -1   9   2  10   2
M  END
