C6HCl5O
 OpenBabel01061902423D

 13 13  0  0  0  0  0  0  0  0999 V2000
   -0.0020    2.9300    0.8080 H   0  0  0  0  0  0  0  0  0  0  0  0
    0.0002   -1.5961   -0.0600 C   0  0  0  0  0  0  0  0  0  0  0  0
    1.1997   -0.9046   -0.0651 C   0  0  0  0  0  0  0  0  0  0  0  0
   -1.1992   -0.9047   -0.0645 C   0  0  0  0  0  0  0  0  0  0  0  0
   -1.2011    0.4790   -0.0692 C   0  0  0  0  0  0  0  0  0  0  0  0
    1.2015    0.4791   -0.0693 C   0  0  0  0  0  0  0  0  0  0  0  0
    0.0002    1.1737   -0.0689 C   0  0  0  0  0  0  0  0  0  0  0  0
    0.0001    2.5334   -0.0740 O   0  0  0  0  0  0  0  0  0  0  0  0
    0.0003   -3.3320   -0.0553 Cl  0  0  0  0  0  0  0  0  0  0  0  0
    2.7022   -1.7741   -0.0656 Cl  0  0  0  0  0  0  0  0  0  0  0  0
   -2.7017   -1.7742   -0.0648 Cl  0  0  0  0  0  0  0  0  0  0  0  0
   -2.7054    1.3454   -0.0759 Cl  0  0  0  0  0  0  0  0  0  0  0  0
    2.7057    1.3456   -0.0750 Cl  0  0  0  0  0  0  0  0  0  0  0  0
  1  8  1  0  0  0  0
  2  9  1  0  0  0  0
  2  3  2  0  0  0  0
  2  4  1  0  0  0  0
  3 10  1  0  0  0  0
  3  6  1  0  0  0  0
  4 11  1  0  0  0  0
  4  5  2  0  0  0  0
  5 12  1  0  0  0  0
  5  7  1  0  0  0  0
  6 13  1  0  0  0  0
  6  7  2  0  0  0  0
  7  8  1  0  0  0  0
M  END
