C18H24O2
 OpenBabel01061902443D

 44 47  0  0  0  0  0  0  0  0999 V2000
    1.5289   -0.6541   -0.5675 C   0  0  1  0  0  0  0  0  0  0  0  0
    0.0979   -0.7274   -0.0762 C   0  0  1  0  0  0  0  0  0  0  0  0
    2.1220    0.6656    0.0005 C   0  0  2  0  0  0  0  0  0  0  0  0
   -0.6591    0.4396   -0.7236 C   0  0  2  0  0  0  0  0  0  0  0  0
    3.6205    0.5034   -0.2268 C   0  0  2  0  0  0  0  0  0  0  0  0
   -2.8747    1.5256   -0.4663 C   0  0  0  0  0  0  0  0  0  0  0  0
   -4.0663   -0.8287    0.3273 C   0  0  0  0  0  0  0  0  0  0  0  0
   -4.2201    1.5113   -0.1660 C   0  0  0  0  0  0  0  0  0  0  0  0
    1.8478    0.7462    1.5036 C   0  0  0  0  0  0  0  0  0  0  0  0
    5.3129    1.1031    0.7099 H   0  0  0  0  0  0  0  0  0  0  0  0
   -6.3500    0.4819    1.4540 H   0  0  0  0  0  0  0  0  0  0  0  0
   -4.8225    0.3264    0.2318 C   0  0  0  0  0  0  0  0  0  0  0  0
    2.4926   -1.6969    0.0092 C   0  0  0  0  0  0  0  0  0  0  0  0
   -0.5849   -2.0254   -0.5074 C   0  0  0  0  0  0  0  0  0  0  0  0
    1.4453    1.8238   -0.7025 C   0  0  0  0  0  0  0  0  0  0  0  0
    3.8808   -1.0227   -0.1661 C   0  0  0  0  0  0  0  0  0  0  0  0
   -0.0512    1.7807   -0.3392 C   0  0  0  0  0  0  0  0  0  0  0  0
   -1.9464   -2.1017    0.1819 C   0  0  0  0  0  0  0  0  0  0  0  0
    4.3527    1.1720    0.8023 O   0  0  0  0  0  0  0  0  0  0  0  0
   -6.1491    0.3000    0.5257 O   0  0  0  0  0  0  0  0  0  0  0  0
   -2.1172    0.3659   -0.3740 C   0  0  0  0  0  0  0  0  0  0  0  0
   -2.7100   -0.8125    0.0297 C   0  0  0  0  0  0  0  0  0  0  0  0
    1.5579   -0.6499   -1.6570 H   0  0  0  0  0  0  0  0  0  0  0  0
    0.0752   -0.6249    1.0088 H   0  0  0  0  0  0  0  0  0  0  0  0
   -0.5678    0.3399   -1.8052 H   0  0  0  0  0  0  0  0  0  0  0  0
    2.2812   -1.8760    1.0635 H   0  0  0  0  0  0  0  0  0  0  0  0
    2.4406   -2.6258   -0.5589 H   0  0  0  0  0  0  0  0  0  0  0  0
   -0.7199   -2.0280   -1.5891 H   0  0  0  0  0  0  0  0  0  0  0  0
    0.0257   -2.8782   -0.2107 H   0  0  0  0  0  0  0  0  0  0  0  0
    1.8802    2.7651   -0.3665 H   0  0  0  0  0  0  0  0  0  0  0  0
    1.5670    1.7236   -1.7811 H   0  0  0  0  0  0  0  0  0  0  0  0
    3.8990    0.8969   -1.2044 H   0  0  0  0  0  0  0  0  0  0  0  0
    2.2471   -0.1417    1.9939 H   0  0  0  0  0  0  0  0  0  0  0  0
    2.3282    1.6346    1.9135 H   0  0  0  0  0  0  0  0  0  0  0  0
    0.7727    0.8029    1.6744 H   0  0  0  0  0  0  0  0  0  0  0  0
    4.3463   -1.3600   -1.0920 H   0  0  0  0  0  0  0  0  0  0  0  0
    4.5216   -1.2594    0.6834 H   0  0  0  0  0  0  0  0  0  0  0  0
   -0.5728    2.5768   -0.8706 H   0  0  0  0  0  0  0  0  0  0  0  0
   -0.1647    1.9319    0.7342 H   0  0  0  0  0  0  0  0  0  0  0  0
   -2.5250   -2.9133   -0.2593 H   0  0  0  0  0  0  0  0  0  0  0  0
   -1.7985   -2.3057    1.2425 H   0  0  0  0  0  0  0  0  0  0  0  0
   -2.4057    2.4476   -0.7770 H   0  0  0  0  0  0  0  0  0  0  0  0
   -4.5352   -1.7512    0.6364 H   0  0  0  0  0  0  0  0  0  0  0  0
   -4.8023    2.4180   -0.2398 H   0  0  0  0  0  0  0  0  0  0  0  0
  1  2  1  0  0  0  0
  1  3  1  0  0  0  0
  1 13  1  0  0  0  0
  1 23  1  6  0  0  0
  2  4  1  0  0  0  0
  2 14  1  0  0  0  0
  2 24  1  1  0  0  0
  3 15  1  0  0  0  0
  3  5  1  0  0  0  0
  3  9  1  1  0  0  0
  4 21  1  0  0  0  0
  4 17  1  0  0  0  0
  4 25  1  6  0  0  0
  5 19  1  0  0  0  0
  5 16  1  0  0  0  0
  5 32  1  6  0  0  0
  6 21  1  0  0  0  0
  6  8  2  0  0  0  0
  6 42  1  0  0  0  0
  7 22  1  0  0  0  0
  7 12  2  0  0  0  0
  7 43  1  0  0  0  0
  8 12  1  0  0  0  0
  8 44  1  0  0  0  0
  9 33  1  0  0  0  0
  9 34  1  0  0  0  0
  9 35  1  0  0  0  0
 10 19  1  0  0  0  0
 11 20  1  0  0  0  0
 12 20  1  0  0  0  0
 13 16  1  0  0  0  0
 13 26  1  0  0  0  0
 13 27  1  0  0  0  0
 14 18  1  0  0  0  0
 14 28  1  0  0  0  0
 14 29  1  0  0  0  0
 15 17  1  0  0  0  0
 15 30  1  0  0  0  0
 15 31  1  0  0  0  0
 16 36  1  0  0  0  0
 16 37  1  0  0  0  0
 17 38  1  0  0  0  0
 17 39  1  0  0  0  0
 18 22  1  0  0  0  0
 18 40  1  0  0  0  0
 18 41  1  0  0  0  0
 21 22  2  0  0  0  0
M  END
