C18H22O2
 OpenBabel01061902443D

 42 45  0  0  0  0  0  0  0  0999 V2000
    2.6521    1.6783    0.0259 C   0  0  0  0  0  0  0  0  0  0  0  0
    3.8641   -0.7967    0.1347 C   0  0  0  0  0  0  0  0  0  0  0  0
    4.0263    1.5970    0.1316 C   0  0  0  0  0  0  0  0  0  0  0  0
   -2.2372    0.2693   -1.6276 C   0  0  0  0  0  0  0  0  0  0  0  0
    6.4467    0.2269   -0.5562 H   0  0  0  0  0  0  0  0  0  0  0  0
    4.6343    0.3515    0.1870 C   0  0  0  0  0  0  0  0  0  0  0  0
   -4.5555    1.4234    0.4030 O   0  0  0  0  0  0  0  0  0  0  0  0
   -2.5959   -1.6304    0.4806 C   0  0  0  0  0  0  0  0  0  0  0  0
    0.2204   -1.8170   -0.2876 C   0  0  0  0  0  0  0  0  0  0  0  0
   -1.6993    2.0066    0.0799 C   0  0  0  0  0  0  0  0  0  0  0  0
   -4.0004   -0.9720    0.3957 C   0  0  0  0  0  0  0  0  0  0  0  0
   -0.2127    1.8891    0.4639 C   0  0  0  0  0  0  0  0  0  0  0  0
    1.7189   -2.0154   -0.0395 C   0  0  0  0  0  0  0  0  0  0  0  0
    5.9865    0.2596    0.2936 O   0  0  0  0  0  0  0  0  0  0  0  0
   -3.7717    0.5283    0.2479 C   0  0  0  0  0  0  0  0  0  0  0  0
    1.8835    0.5296   -0.0212 C   0  0  0  0  0  0  0  0  0  0  0  0
    2.4799   -0.7188    0.0249 C   0  0  0  0  0  0  0  0  0  0  0  0
   -1.6779   -0.4300    0.7561 C   0  0  1  0  0  0  0  0  0  0  0  0
   -0.2172   -0.6062    0.5244 C   0  0  2  0  0  0  0  0  0  0  0  0
    0.3893    0.6351   -0.1392 C   0  0  1  0  0  0  0  0  0  0  0  0
   -2.3099    0.6486   -0.1465 C   0  0  1  0  0  0  0  0  0  0  0  0
   -1.8305   -0.1313    1.8162 H   0  0  0  0  0  0  0  0  0  0  0  0
    0.2700   -0.6999    1.5195 H   0  0  0  0  0  0  0  0  0  0  0  0
    0.1777    0.6121   -1.2056 H   0  0  0  0  0  0  0  0  0  0  0  0
   -2.5541   -2.3402    1.3095 H   0  0  0  0  0  0  0  0  0  0  0  0
   -2.3372   -2.1264   -0.4511 H   0  0  0  0  0  0  0  0  0  0  0  0
    0.0472   -1.6484   -1.3491 H   0  0  0  0  0  0  0  0  0  0  0  0
   -0.3217   -2.7040    0.0408 H   0  0  0  0  0  0  0  0  0  0  0  0
   -2.2414    2.5229    0.8839 H   0  0  0  0  0  0  0  0  0  0  0  0
   -1.7988    2.6137   -0.8277 H   0  0  0  0  0  0  0  0  0  0  0  0
   -2.8719   -0.5974   -1.8123 H   0  0  0  0  0  0  0  0  0  0  0  0
   -2.5807    1.1071   -2.2345 H   0  0  0  0  0  0  0  0  0  0  0  0
   -1.2073    0.0281   -1.8908 H   0  0  0  0  0  0  0  0  0  0  0  0
   -4.5387   -1.3554   -0.4717 H   0  0  0  0  0  0  0  0  0  0  0  0
   -4.5646   -1.1761    1.3046 H   0  0  0  0  0  0  0  0  0  0  0  0
    0.3208    2.7715    0.0979 H   0  0  0  0  0  0  0  0  0  0  0  0
   -0.1193    1.8601    1.5535 H   0  0  0  0  0  0  0  0  0  0  0  0
    1.8468   -2.5485    0.9049 H   0  0  0  0  0  0  0  0  0  0  0  0
    2.1283   -2.6294   -0.8428 H   0  0  0  0  0  0  0  0  0  0  0  0
    2.1846    2.6508   -0.0240 H   0  0  0  0  0  0  0  0  0  0  0  0
    4.3433   -1.7639    0.1799 H   0  0  0  0  0  0  0  0  0  0  0  0
    4.6224    2.4968    0.1673 H   0  0  0  0  0  0  0  0  0  0  0  0
  1 16  1  0  0  0  0
  1  3  2  0  0  0  0
  1 40  1  0  0  0  0
  2 17  1  0  0  0  0
  2  6  2  0  0  0  0
  2 41  1  0  0  0  0
  3  6  1  0  0  0  0
  3 42  1  0  0  0  0
  4 31  1  0  0  0  0
  4 32  1  0  0  0  0
  4 33  1  0  0  0  0
  5 14  1  0  0  0  0
  6 14  1  0  0  0  0
  7 15  2  0  0  0  0
  8 18  1  0  0  0  0
  8 11  1  0  0  0  0
  8 25  1  0  0  0  0
  8 26  1  0  0  0  0
  9 19  1  0  0  0  0
  9 13  1  0  0  0  0
  9 27  1  0  0  0  0
  9 28  1  0  0  0  0
 10 21  1  0  0  0  0
 10 12  1  0  0  0  0
 10 29  1  0  0  0  0
 10 30  1  0  0  0  0
 11 15  1  0  0  0  0
 11 34  1  0  0  0  0
 11 35  1  0  0  0  0
 12 20  1  0  0  0  0
 12 36  1  0  0  0  0
 12 37  1  0  0  0  0
 13 17  1  0  0  0  0
 13 38  1  0  0  0  0
 13 39  1  0  0  0  0
 15 21  1  0  0  0  0
 16 20  1  0  0  0  0
 16 17  2  0  0  0  0
 18 19  1  0  0  0  0
 18 21  1  0  0  0  0
 18 22  1  1  0  0  0
 19 20  1  0  0  0  0
 19 23  1  1  0  0  0
 20 24  1  6  0  0  0
 21  4  1  6  0  0  0
M  END
