CH2O2
 OpenBabel01061902483D

  5  4  0  0  0  0  0  0  0  0999 V2000
   -0.4197   -0.0562   -0.0010 C   0  0  0  0  0  0  0  0  0  0  0  0
   -1.4487    0.5770   -0.0003 O   0  0  0  0  0  0  0  0  0  0  0  0
    0.7611    0.5821   -0.0002 O   0  0  0  0  0  0  0  0  0  0  0  0
   -0.4499   -1.1358    0.0023 H   0  0  0  0  0  0  0  0  0  0  0  0
    1.5570    0.0329   -0.0008 H   0  0  0  0  0  0  0  0  0  0  0  0
  1  2  2  0  0  0  0
  1  3  1  0  0  0  0
  1  4  1  0  0  0  0
  3  5  1  0  0  0  0
M  END
