C6H13O9P
 OpenBabel01061902483D

 29 28  0  0  0  0  0  0  0  0999 V2000
    4.3454   -0.1164    0.3197 P   0  0  0  0  0  0  0  0  0  0  0  0
    4.3895   -0.6676    1.6925 O   0  0  0  0  0  0  0  0  0  0  0  0
    5.4754    1.0194    0.1609 O   0  0  0  0  0  0  0  0  0  0  0  0
    4.6176   -1.2963   -0.7414 O   0  0  0  0  0  0  0  0  0  0  0  0
    2.8953    0.5274    0.0461 O   0  0  0  0  0  0  0  0  0  0  0  0
    1.6768   -0.2005    0.2120 C   0  0  0  0  0  0  0  0  0  0  0  0
    0.4915    0.7046   -0.1297 C   0  0  2  0  0  0  0  0  0  0  0  0
    0.5414    1.6116    0.4727 H   0  0  0  0  0  0  0  0  0  0  0  0
   -0.8157   -0.0332    0.1666 C   0  0  2  0  0  0  0  0  0  0  0  0
   -0.8656   -0.9402   -0.4358 H   0  0  0  0  0  0  0  0  0  0  0  0
   -2.0010    0.8719   -0.1751 C   0  0  1  0  0  0  0  0  0  0  0  0
   -2.0146    1.0631   -1.2482 H   0  0  0  0  0  0  0  0  0  0  0  0
   -3.2842    0.1939    0.2307 C   0  0  0  0  0  0  0  0  0  0  0  0
   -3.8286   -0.9441   -0.5938 C   0  0  0  0  0  0  0  0  0  0  0  0
   -5.0443   -1.4164   -0.0099 O   0  0  0  0  0  0  0  0  0  0  0  0
   -3.8762    0.5624    1.2166 O   0  0  0  0  0  0  0  0  0  0  0  0
   -1.8733    2.1096    0.5276 O   0  0  0  0  0  0  0  0  0  0  0  0
   -0.8641   -0.3785    1.5524 O   0  0  0  0  0  0  0  0  0  0  0  0
    0.5399    1.0500   -1.5155 O   0  0  0  0  0  0  0  0  0  0  0  0
    6.3762    0.7019    0.3121 H   0  0  0  0  0  0  0  0  0  0  0  0
    4.6034   -1.0066   -1.6639 H   0  0  0  0  0  0  0  0  0  0  0  0
    1.6768   -1.0652   -0.4516 H   0  0  0  0  0  0  0  0  0  0  0  0
    1.5917   -0.5358    1.2457 H   0  0  0  0  0  0  0  0  0  0  0  0
   -4.0237   -0.5968   -1.6084 H   0  0  0  0  0  0  0  0  0  0  0  0
   -3.0998   -1.7542   -0.6209 H   0  0  0  0  0  0  0  0  0  0  0  0
   -5.4517   -2.1507   -0.4894 H   0  0  0  0  0  0  0  0  0  0  0  0
   -1.8544    2.0155    1.4898 H   0  0  0  0  0  0  0  0  0  0  0  0
   -0.8240    0.3816    2.1488 H   0  0  0  0  0  0  0  0  0  0  0  0
    0.4997    0.2898   -2.1119 H   0  0  0  0  0  0  0  0  0  0  0  0
  1  2  2  0  0  0  0
  1  3  1  0  0  0  0
  1  4  1  0  0  0  0
  1  5  1  0  0  0  0
  3 20  1  0  0  0  0
  4 21  1  0  0  0  0
  5  6  1  0  0  0  0
  6  7  1  0  0  0  0
  6 22  1  0  0  0  0
  6 23  1  0  0  0  0
  7  8  1  1  0  0  0
  7  9  1  0  0  0  0
  7 19  1  0  0  0  0
  9 10  1  6  0  0  0
  9 11  1  0  0  0  0
  9 18  1  0  0  0  0
 11 12  1  6  0  0  0
 11 13  1  0  0  0  0
 11 17  1  0  0  0  0
 13 14  1  0  0  0  0
 13 16  2  0  0  0  0
 14 15  1  0  0  0  0
 14 24  1  0  0  0  0
 14 25  1  0  0  0  0
 15 26  1  0  0  0  0
 17 27  1  0  0  0  0
 18 28  1  0  0  0  0
 19 29  1  0  0  0  0
M  END
