C7H8O6
 OpenBabel01061902493D

 21 20  0  0  0  0  0  0  0  0999 V2000
  -11.6631   -0.9733   -0.4839 O   0  0  0  0  0  0  0  0  0  0  0  0
    3.9439   -1.4470   -0.2353 C   0  0  0  0  0  0  0  0  0  0  0  0
    2.8362   -0.5073    0.0196 C   0  0  0  0  0  0  0  0  0  0  0  0
    2.9691    0.8411   -0.3230 C   0  0  0  0  0  0  0  0  0  0  0  0
    1.9293    1.7194   -0.0834 C   0  0  0  0  0  0  0  0  0  0  0  0
    2.0578    3.0317   -0.4169 O   0  0  0  0  0  0  0  0  0  0  0  0
    0.7499    1.2620    0.4988 C   0  0  0  0  0  0  0  0  0  0  0  0
   -0.2710    2.1276    0.7328 O   0  0  0  0  0  0  0  0  0  0  0  0
    0.6147   -0.0809    0.8411 C   0  0  0  0  0  0  0  0  0  0  0  0
   -0.5385   -0.5244    1.4095 O   0  0  0  0  0  0  0  0  0  0  0  0
    1.6493   -0.9647    0.5989 C   0  0  0  0  0  0  0  0  0  0  0  0
    4.9733   -1.0491   -0.7436 O   0  0  0  0  0  0  0  0  0  0  0  0
    3.8164   -2.7457    0.1006 O   0  0  0  0  0  0  0  0  0  0  0  0
  -11.9660   -0.0583   -0.5627 H   0  0  0  0  0  0  0  0  0  0  0  0
  -10.7658   -1.1203   -0.8130 H   0  0  0  0  0  0  0  0  0  0  0  0
    3.8837    1.1965   -0.7742 H   0  0  0  0  0  0  0  0  0  0  0  0
    1.7655    3.2397   -1.3149 H   0  0  0  0  0  0  0  0  0  0  0  0
   -0.8957    2.2067   -0.0011 H   0  0  0  0  0  0  0  0  0  0  0  0
   -1.2013   -0.8238    0.7723 H   0  0  0  0  0  0  0  0  0  0  0  0
    1.5438   -2.0063    0.8643 H   0  0  0  0  0  0  0  0  0  0  0  0
    4.5692   -3.3233   -0.0859 H   0  0  0  0  0  0  0  0  0  0  0  0
  1 14  1  0  0  0  0
  1 15  1  0  0  0  0
  2  3  1  0  0  0  0
  2 12  2  0  0  0  0
  2 13  1  0  0  0  0
  3  4  2  0  0  0  0
  3 11  1  0  0  0  0
  4  5  1  0  0  0  0
  4 16  1  0  0  0  0
  5  6  1  0  0  0  0
  5  7  2  0  0  0  0
  6 17  1  0  0  0  0
  7  8  1  0  0  0  0
  7  9  1  0  0  0  0
  8 18  1  0  0  0  0
  9 10  1  0  0  0  0
  9 11  2  0  0  0  0
 10 19  1  0  0  0  0
 11 20  1  0  0  0  0
 13 21  1  0  0  0  0
M  END
