C6H10O7
 OpenBabel01061902503D

 23 22  0  0  0  0  0  0  0  0999 V2000
   -4.1129    0.0420   -0.2726 O   0  0  0  0  0  0  0  0  0  0  0  0
   -3.2658   -0.5792    0.3231 C   0  0  0  0  0  0  0  0  0  0  0  0
   -1.9795    0.0954    0.7249 C   0  0  2  0  0  0  0  0  0  0  0  0
   -1.8743    0.0605    1.8093 H   0  0  0  0  0  0  0  0  0  0  0  0
   -2.0003    1.4571    0.2920 O   0  0  0  0  0  0  0  0  0  0  0  0
   -0.7990   -0.6286    0.0745 C   0  0  1  0  0  0  0  0  0  0  0  0
   -0.7301   -1.6412    0.4721 H   0  0  0  0  0  0  0  0  0  0  0  0
   -0.9954   -0.6846   -1.3399 O   0  0  0  0  0  0  0  0  0  0  0  0
    0.4948    0.1286    0.3801 C   0  0  2  0  0  0  0  0  0  0  0  0
    0.6910    0.0949    1.4518 H   0  0  0  0  0  0  0  0  0  0  0  0
    0.3607    1.4887   -0.0371 O   0  0  0  0  0  0  0  0  0  0  0  0
    1.6570   -0.5232   -0.3718 C   0  0  2  0  0  0  0  0  0  0  0  0
    1.4609   -0.4896   -1.4435 H   0  0  0  0  0  0  0  0  0  0  0  0
    1.7912   -1.8834    0.0454 O   0  0  0  0  0  0  0  0  0  0  0  0
    2.9314    0.2226   -0.0707 C   0  0  0  0  0  0  0  0  0  0  0  0
    3.8254   -0.3263    0.5288 O   0  0  0  0  0  0  0  0  0  0  0  0
    3.0734    1.4967   -0.4685 O   0  0  0  0  0  0  0  0  0  0  0  0
   -3.4319   -1.6170    0.5718 H   0  0  0  0  0  0  0  0  0  0  0  0
   -2.0920    1.5642   -0.6647 H   0  0  0  0  0  0  0  0  0  0  0  0
   -1.0658    0.1826   -1.7618 H   0  0  0  0  0  0  0  0  0  0  0  0
    0.1844    1.5947   -0.9819 H   0  0  0  0  0  0  0  0  0  0  0  0
    1.9674   -1.9894    0.9903 H   0  0  0  0  0  0  0  0  0  0  0  0
    3.9086    1.9336   -0.2524 H   0  0  0  0  0  0  0  0  0  0  0  0
  1  2  2  0  0  0  0
  2  3  1  0  0  0  0
  2 18  1  0  0  0  0
  3  4  1  1  0  0  0
  3  5  1  0  0  0  0
  3  6  1  0  0  0  0
  5 19  1  0  0  0  0
  6  7  1  1  0  0  0
  6  8  1  0  0  0  0
  6  9  1  0  0  0  0
  8 20  1  0  0  0  0
  9 10  1  1  0  0  0
  9 11  1  0  0  0  0
  9 12  1  0  0  0  0
 11 21  1  0  0  0  0
 12 13  1  6  0  0  0
 12 14  1  0  0  0  0
 12 15  1  0  0  0  0
 14 22  1  0  0  0  0
 15 16  2  0  0  0  0
 15 17  1  0  0  0  0
 17 23  1  0  0  0  0
M  END
