C5H7NO4
 OpenBabel01061902503D

 17 16  0  0  0  0  0  0  0  0999 V2000
    1.1630    1.4821   -0.2950 N   0  0  0  0  0  0  0  0  0  0  0  0
    1.0514    0.1733    0.3628 C   0  0  1  0  0  0  0  0  0  0  0  0
    1.0075    0.3121    1.4430 H   0  0  0  0  0  0  0  0  0  0  0  0
   -0.2214   -0.5297   -0.1132 C   0  0  0  0  0  0  0  0  0  0  0  0
   -1.4455    0.2622    0.3510 C   0  0  0  0  0  0  0  0  0  0  0  0
   -2.6992   -0.4303   -0.1178 C   0  0  0  0  0  0  0  0  0  0  0  0
   -2.6209   -1.4616   -0.7633 O   0  0  0  0  0  0  0  0  0  0  0  0
   -3.7917    0.0409    0.1484 O   0  5  0  0  0  0  0  0  0  0  0  0
    2.2512   -0.6687    0.0128 C   0  0  0  0  0  0  0  0  0  0  0  0
    3.1188   -0.2202   -0.7169 O   0  0  0  0  0  0  0  0  0  0  0  0
    2.3542   -1.7985    0.4593 O   0  5  0  0  0  0  0  0  0  0  0  0
    1.9612    1.9935    0.0506 H   0  0  0  0  0  0  0  0  0  0  0  0
    1.2054    1.3803   -1.2979 H   0  0  0  0  0  0  0  0  0  0  0  0
   -0.2184   -0.5891   -1.2015 H   0  0  0  0  0  0  0  0  0  0  0  0
   -0.2592   -1.5354    0.3055 H   0  0  0  0  0  0  0  0  0  0  0  0
   -1.4485    0.3216    1.4394 H   0  0  0  0  0  0  0  0  0  0  0  0
   -1.4077    1.2679   -0.0677 H   0  0  0  0  0  0  0  0  0  0  0  0
  1  2  1  0  0  0  0
  1 12  1  0  0  0  0
  1 13  1  0  0  0  0
  2  3  1  1  0  0  0
  2  4  1  0  0  0  0
  2  9  1  0  0  0  0
  4  5  1  0  0  0  0
  4 14  1  0  0  0  0
  4 15  1  0  0  0  0
  5  6  1  0  0  0  0
  5 16  1  0  0  0  0
  5 17  1  0  0  0  0
  6  7  2  0  0  0  0
  6  8  1  0  0  0  0
  9 10  2  0  0  0  0
  9 11  1  0  0  0  0
M  CHG  2   8  -1  11  -1
M  END
