Fe2O3
 OpenBabel01061902523D

  5  0  0  0  0  0  0  0  0  0999 V2000
   17.3205    0.0004    0.0001 O   0  6  0  0  0  0  0  0  0  0  0  0
    0.0000   -0.0000   -0.0000 O   0  6  0  0  0  0  0  0  0  0  0  0
    8.6602    0.0002   -0.0000 O   0  6  0  0  0  0  0  0  0  0  0  0
  -17.3205   -0.0003   -0.0000 Fe  0  1  0  0  0  0  0  0  0  0  0  0
   -8.6603   -0.0001   -0.0000 Fe  0  1  0  0  0  0  0  0  0  0  0  0
M  RAD  2   4   2   5   2
M  CHG  5   1  -2   2  -2   3  -2   4   3   5   3
M  END
