C6H14
 OpenBabel01061902543D

 20 19  0  0  0  0  0  0  0  0999 V2000
    3.1459   -0.2289   -0.0000 C   0  0  0  0  0  0  0  0  0  0  0  0
    1.8396    0.5677    0.0000 C   0  0  0  0  0  0  0  0  0  0  0  0
    0.6531   -0.3983    0.0000 C   0  0  0  0  0  0  0  0  0  0  0  0
   -0.6531    0.3983    0.0000 C   0  0  0  0  0  0  0  0  0  0  0  0
   -1.8396   -0.5677    0.0000 C   0  0  0  0  0  0  0  0  0  0  0  0
   -3.1459    0.2289   -0.0000 C   0  0  0  0  0  0  0  0  0  0  0  0
    3.9911    0.4593    0.0000 H   0  0  0  0  0  0  0  0  0  0  0  0
    3.1885   -0.8568    0.8900 H   0  0  0  0  0  0  0  0  0  0  0  0
    3.1885   -0.8568   -0.8900 H   0  0  0  0  0  0  0  0  0  0  0  0
    1.7969    1.1956    0.8900 H   0  0  0  0  0  0  0  0  0  0  0  0
    1.7969    1.1956   -0.8900 H   0  0  0  0  0  0  0  0  0  0  0  0
    0.6958   -1.0262   -0.8900 H   0  0  0  0  0  0  0  0  0  0  0  0
    0.6958   -1.0262    0.8900 H   0  0  0  0  0  0  0  0  0  0  0  0
   -0.6958    1.0262    0.8900 H   0  0  0  0  0  0  0  0  0  0  0  0
   -0.6958    1.0262   -0.8900 H   0  0  0  0  0  0  0  0  0  0  0  0
   -1.7969   -1.1956   -0.8900 H   0  0  0  0  0  0  0  0  0  0  0  0
   -1.7969   -1.1956    0.8900 H   0  0  0  0  0  0  0  0  0  0  0  0
   -3.9911   -0.4593    0.0000 H   0  0  0  0  0  0  0  0  0  0  0  0
   -3.1885    0.8568    0.8900 H   0  0  0  0  0  0  0  0  0  0  0  0
   -3.1885    0.8568   -0.8900 H   0  0  0  0  0  0  0  0  0  0  0  0
  1  2  1  0  0  0  0
  1  7  1  0  0  0  0
  1  8  1  0  0  0  0
  1  9  1  0  0  0  0
  2  3  1  0  0  0  0
  2 10  1  0  0  0  0
  2 11  1  0  0  0  0
  3  4  1  0  0  0  0
  3 12  1  0  0  0  0
  3 13  1  0  0  0  0
  4  5  1  0  0  0  0
  4 14  1  0  0  0  0
  4 15  1  0  0  0  0
  5  6  1  0  0  0  0
  5 16  1  0  0  0  0
  5 17  1  0  0  0  0
  6 18  1  0  0  0  0
  6 19  1  0  0  0  0
  6 20  1  0  0  0  0
M  END
