C6H6Cl6
 OpenBabel01061902533D

 18 18  0  0  0  0  0  0  0  0999 V2000
   -1.2492   -1.4763    1.5381 Cl  0  0  0  0  0  0  0  0  0  0  0  0
   -1.2492    0.1079    0.6773 C   0  0  0  0  0  0  0  0  0  0  0  0
    0.0000    0.9003    1.0675 C   0  0  0  0  0  0  0  0  0  0  0  0
    1.2492    0.1079    0.6773 C   0  0  0  0  0  0  0  0  0  0  0  0
    1.2492   -0.1328   -0.8337 C   0  0  0  0  0  0  0  0  0  0  0  0
    0.0000   -0.9253   -1.2239 C   0  0  0  0  0  0  0  0  0  0  0  0
   -1.2492   -0.1328   -0.8337 C   0  0  0  0  0  0  0  0  0  0  0  0
    2.7214    1.0417    1.1371 Cl  0  0  0  0  0  0  0  0  0  0  0  0
    1.2492   -1.4763    1.5381 Cl  0  0  0  0  0  0  0  0  0  0  0  0
    0.0000    2.4845    0.2066 Cl  0  0  0  0  0  0  0  0  0  0  0  0
   -0.0000    1.1839    2.8480 Cl  0  0  0  0  0  0  0  0  0  0  0  0
   -2.7214    1.0417    1.1371 Cl  0  0  0  0  0  0  0  0  0  0  0  0
    1.2492    0.8249   -1.3541 H   0  0  0  0  0  0  0  0  0  0  0  0
    2.1392   -0.6974   -1.1117 H   0  0  0  0  0  0  0  0  0  0  0  0
    0.0000   -1.0967   -2.3004 H   0  0  0  0  0  0  0  0  0  0  0  0
   -0.0000   -1.8830   -0.7035 H   0  0  0  0  0  0  0  0  0  0  0  0
   -2.1392   -0.6974   -1.1117 H   0  0  0  0  0  0  0  0  0  0  0  0
   -1.2492    0.8249   -1.3541 H   0  0  0  0  0  0  0  0  0  0  0  0
  1  2  1  0  0  0  0
  2  3  1  0  0  0  0
  2  7  1  0  0  0  0
  2 12  1  0  0  0  0
  3  4  1  0  0  0  0
  3 10  1  0  0  0  0
  3 11  1  0  0  0  0
  4  5  1  0  0  0  0
  4  8  1  0  0  0  0
  4  9  1  0  0  0  0
  5  6  1  0  0  0  0
  5 13  1  0  0  0  0
  5 14  1  0  0  0  0
  6  7  1  0  0  0  0
  6 15  1  0  0  0  0
  6 16  1  0  0  0  0
  7 17  1  0  0  0  0
  7 18  1  0  0  0  0
M  END
