HO3S2
 OpenBabel01061902573D

  6  5  0  0  0  0  0  0  0  0999 V2000
    0.2378   -0.9702    1.2015 O   0  0  0  0  0  0  0  0  0  0  0  0
    0.3873    1.1532    0.0000 O   0  0  0  0  0  0  0  0  0  0  0  0
    1.3542    1.1693   -0.0000 H   0  0  0  0  0  0  0  0  0  0  0  0
    0.2378   -0.9702   -1.2015 O   0  5  0  0  0  0  0  0  0  0  0  0
   -0.2085   -0.2473    0.0000 S   0  0  1  0  0  0  0  0  0  0  0  0
   -2.0085   -0.1348   -0.0000 S   0  0  0  0  0  0  0  0  0  0  0  0
  1  5  2  0  0  0  0
  2  5  1  0  0  0  0
  2  3  1  0  0  0  0
  4  5  1  0  0  0  0
  5  6  2  1  0  0  0
M  CHG  1   4  -1
M  END
