C3H8O
 OpenBabel01061902593D

 12 11  0  0  0  0  0  0  0  0999 V2000
   -0.1191    0.2929    0.3561 C   0  0  0  0  0  0  0  0  0  0  0  0
   -0.7507   -1.0116   -0.1341 C   0  0  0  0  0  0  0  0  0  0  0  0
    1.3299    0.3716   -0.1286 C   0  0  0  0  0  0  0  0  0  0  0  0
   -0.8555    1.4027   -0.1616 O   0  0  0  0  0  0  0  0  0  0  0  0
   -0.1398    0.3196    1.4456 H   0  0  0  0  0  0  0  0  0  0  0  0
   -1.7830   -1.0677    0.2112 H   0  0  0  0  0  0  0  0  0  0  0  0
   -0.7301   -1.0383   -1.2236 H   0  0  0  0  0  0  0  0  0  0  0  0
   -0.1890   -1.8581    0.2608 H   0  0  0  0  0  0  0  0  0  0  0  0
    1.3506    0.3449   -1.2181 H   0  0  0  0  0  0  0  0  0  0  0  0
    1.7799    1.3010    0.2206 H   0  0  0  0  0  0  0  0  0  0  0  0
    1.8917   -0.4749    0.2663 H   0  0  0  0  0  0  0  0  0  0  0  0
   -1.7847    1.4174    0.1059 H   0  0  0  0  0  0  0  0  0  0  0  0
  1  2  1  0  0  0  0
  1  3  1  0  0  0  0
  1  4  1  0  0  0  0
  1  5  1  0  0  0  0
  2  6  1  0  0  0  0
  2  7  1  0  0  0  0
  2  8  1  0  0  0  0
  3  9  1  0  0  0  0
  3 10  1  0  0  0  0
  3 11  1  0  0  0  0
  4 12  1  0  0  0  0
M  END
