C10H11ClO3
 OpenBabel01061903013D

 25 25  0  0  0  0  0  0  0  0999 V2000
    0.9893    1.0918    0.2190 C   0  0  0  0  0  0  0  0  0  0  0  0
    2.8001   -1.0014    0.1401 C   0  0  0  0  0  0  0  0  0  0  0  0
    2.3426    1.3442    0.3322 C   0  0  0  0  0  0  0  0  0  0  0  0
    0.9598   -2.6743   -0.1394 C   0  0  0  0  0  0  0  0  0  0  0  0
   -1.8243    1.3896   -1.2073 C   0  0  0  0  0  0  0  0  0  0  0  0
    0.5381   -0.2112    0.0657 C   0  0  0  0  0  0  0  0  0  0  0  0
    1.4473   -1.2580    0.0265 C   0  0  0  0  0  0  0  0  0  0  0  0
    3.2481    0.2985    0.2929 C   0  0  0  0  0  0  0  0  0  0  0  0
   -3.2133   -1.0337    0.7302 O   0  0  0  0  0  0  0  0  0  0  0  0
   -4.0248    1.0208    0.7934 O   0  0  0  0  0  0  0  0  0  0  0  0
   -3.0281    0.1497    0.5710 C   0  0  0  0  0  0  0  0  0  0  0  0
   -0.7932   -0.4617   -0.0454 O   0  0  0  0  0  0  0  0  0  0  0  0
   -4.8726    0.6542    1.0797 H   0  0  0  0  0  0  0  0  0  0  0  0
   -1.6783    0.6475    0.1227 C   0  0  1  0  0  0  0  0  0  0  0  0
    4.9484    0.6183    0.4360 Cl  0  0  0  0  0  0  0  0  0  0  0  0
    0.2826    1.9077    0.2542 H   0  0  0  0  0  0  0  0  0  0  0  0
    3.5083   -1.8163    0.1100 H   0  0  0  0  0  0  0  0  0  0  0  0
    0.9093   -2.9193   -1.2003 H   0  0  0  0  0  0  0  0  0  0  0  0
    1.6488   -3.3564    0.3587 H   0  0  0  0  0  0  0  0  0  0  0  0
   -0.0314   -2.7716    0.3035 H   0  0  0  0  0  0  0  0  0  0  0  0
   -1.2730    1.3251    0.8742 H   0  0  0  0  0  0  0  0  0  0  0  0
    2.6942    2.3584    0.4512 H   0  0  0  0  0  0  0  0  0  0  0  0
   -2.2296    0.7120   -1.9588 H   0  0  0  0  0  0  0  0  0  0  0  0
   -2.4994    2.2357   -1.0791 H   0  0  0  0  0  0  0  0  0  0  0  0
   -0.8480    1.7497   -1.5316 H   0  0  0  0  0  0  0  0  0  0  0  0
  1  6  1  0  0  0  0
  1  3  2  0  0  0  0
  1 16  1  0  0  0  0
  2  7  1  0  0  0  0
  2  8  2  0  0  0  0
  2 17  1  0  0  0  0
  3  8  1  0  0  0  0
  3 22  1  0  0  0  0
  4  7  1  0  0  0  0
  4 18  1  0  0  0  0
  4 19  1  0  0  0  0
  4 20  1  0  0  0  0
  5 14  1  0  0  0  0
  5 23  1  0  0  0  0
  5 24  1  0  0  0  0
  5 25  1  0  0  0  0
  6  7  2  0  0  0  0
  6 12  1  0  0  0  0
  8 15  1  0  0  0  0
  9 11  2  0  0  0  0
 10 11  1  0  0  0  0
 10 13  1  0  0  0  0
 11 14  1  0  0  0  0
 12 14  1  0  0  0  0
 14 21  1  1  0  0  0
M  END
