C6H17BrN4O3
 OpenBabel01061902113D

 31 28  0  0  0  0  0  0  0  0999 V2000
  -21.0705   -2.3883   -0.0490 O   0  0  0  0  0  0  0  0  0  0  0  0
  -11.9534    0.0989    0.0110 Br  0  0  0  0  0  0  0  0  0  0  0  0
    6.0535   -0.3170   -1.4105 N   0  0  0  0  0  0  0  0  0  0  0  0
    5.7011   -0.7473   -0.0509 C   0  0  1  0  0  0  0  0  0  0  0  0
    6.1611   -0.0753    0.6736 H   0  0  0  0  0  0  0  0  0  0  0  0
    4.1806   -0.7140    0.1165 C   0  0  0  0  0  0  0  0  0  0  0  0
    3.6871    0.7301    0.0083 C   0  0  0  0  0  0  0  0  0  0  0  0
    2.1666    0.7633    0.1757 C   0  0  0  0  0  0  0  0  0  0  0  0
    1.6940    2.1461    0.0721 N   0  0  0  0  0  0  0  0  0  0  0  0
    0.3530    2.4250    0.1914 C   0  0  0  0  0  0  0  0  0  0  0  0
   -0.5444    1.4063    0.4079 N   0  0  0  0  0  0  0  0  0  0  0  0
   -0.0674    3.6553    0.0992 N   0  0  0  0  0  0  0  0  0  0  0  0
    6.2011   -2.1504    0.1774 C   0  0  0  0  0  0  0  0  0  0  0  0
    6.4568   -2.8615   -0.7654 O   0  0  0  0  0  0  0  0  0  0  0  0
    6.3623   -2.6103    1.4281 O   0  0  0  0  0  0  0  0  0  0  0  0
  -21.4876   -1.5764   -0.3683 H   0  0  0  0  0  0  0  0  0  0  0  0
  -20.1887   -2.5468   -0.4128 H   0  0  0  0  0  0  0  0  0  0  0  0
  -10.7442   -0.8046   -0.0305 H   0  0  0  0  0  0  0  0  0  0  0  0
    5.6387   -0.9246   -2.1010 H   0  0  0  0  0  0  0  0  0  0  0  0
    5.7862    0.6434   -1.5665 H   0  0  0  0  0  0  0  0  0  0  0  0
    3.7159   -1.3163   -0.6641 H   0  0  0  0  0  0  0  0  0  0  0  0
    3.9138   -1.1170    1.0935 H   0  0  0  0  0  0  0  0  0  0  0  0
    4.1518    1.3324    0.7889 H   0  0  0  0  0  0  0  0  0  0  0  0
    3.9539    1.1330   -0.9687 H   0  0  0  0  0  0  0  0  0  0  0  0
    1.7019    0.1610   -0.6050 H   0  0  0  0  0  0  0  0  0  0  0  0
    1.8998    0.3604    1.1527 H   0  0  0  0  0  0  0  0  0  0  0  0
    2.3272    2.8649   -0.0808 H   0  0  0  0  0  0  0  0  0  0  0  0
   -0.2315    0.4907    0.4766 H   0  0  0  0  0  0  0  0  0  0  0  0
   -1.4905    1.6030    0.4921 H   0  0  0  0  0  0  0  0  0  0  0  0
   -1.0135    3.8521    0.1833 H   0  0  0  0  0  0  0  0  0  0  0  0
    6.6854   -3.5167    1.5244 H   0  0  0  0  0  0  0  0  0  0  0  0
  1 16  1  0  0  0  0
  1 17  1  0  0  0  0
  2 18  1  0  0  0  0
  3  4  1  0  0  0  0
  3 19  1  0  0  0  0
  3 20  1  0  0  0  0
  4  5  1  1  0  0  0
  4  6  1  0  0  0  0
  4 13  1  0  0  0  0
  6  7  1  0  0  0  0
  6 21  1  0  0  0  0
  6 22  1  0  0  0  0
  7  8  1  0  0  0  0
  7 23  1  0  0  0  0
  7 24  1  0  0  0  0
  8  9  1  0  0  0  0
  8 25  1  0  0  0  0
  8 26  1  0  0  0  0
  9 10  1  0  0  0  0
  9 27  1  0  0  0  0
 10 11  1  0  0  0  0
 10 12  2  0  0  0  0
 11 28  1  0  0  0  0
 11 29  1  0  0  0  0
 12 30  1  0  0  0  0
 13 14  2  0  0  0  0
 13 15  1  0  0  0  0
 15 31  1  0  0  0  0
M  END
