C10H14O
 OpenBabel01061902243D

 25 25  0  0  0  0  0  0  0  0999 V2000
   -2.6492    0.0918    1.1722 C   0  0  0  0  0  0  0  0  0  0  0  0
    3.6484   -0.4544   -0.1364 C   0  0  0  0  0  0  0  0  0  0  0  0
    2.2944    2.0677   -0.1148 O   0  0  0  0  0  0  0  0  0  0  0  0
    0.1235    1.2168    0.3654 C   0  0  0  0  0  0  0  0  0  0  0  0
   -0.1404   -1.2265   -0.0614 C   0  0  0  0  0  0  0  0  0  0  0  0
   -2.1029    0.2801   -0.2196 C   0  0  0  0  0  0  0  0  0  0  0  0
   -0.6212    0.1652   -0.4695 C   0  0  1  0  0  0  0  0  0  0  0  0
    1.5978    1.0868    0.0420 C   0  0  0  0  0  0  0  0  0  0  0  0
    2.1546   -0.2651   -0.0745 C   0  0  0  0  0  0  0  0  0  0  0  0
    1.3549   -1.3233   -0.1260 C   0  0  0  0  0  0  0  0  0  0  0  0
   -2.9161    0.5436   -1.2123 C   0  0  0  0  0  0  0  0  0  0  0  0
   -0.4149    0.3266   -1.5275 H   0  0  0  0  0  0  0  0  0  0  0  0
   -0.2271    2.2150    0.1030 H   0  0  0  0  0  0  0  0  0  0  0  0
   -0.0410    1.0321    1.4269 H   0  0  0  0  0  0  0  0  0  0  0  0
   -0.4682   -1.4334    0.9574 H   0  0  0  0  0  0  0  0  0  0  0  0
   -0.5758   -1.9663   -0.7331 H   0  0  0  0  0  0  0  0  0  0  0  0
    1.8028   -2.3016   -0.2190 H   0  0  0  0  0  0  0  0  0  0  0  0
   -2.6727    1.0527    1.6864 H   0  0  0  0  0  0  0  0  0  0  0  0
   -3.6591   -0.3141    1.1144 H   0  0  0  0  0  0  0  0  0  0  0  0
   -2.0108   -0.5992    1.7227 H   0  0  0  0  0  0  0  0  0  0  0  0
   -2.5246    0.6786   -2.2097 H   0  0  0  0  0  0  0  0  0  0  0  0
   -3.9780    0.6260   -1.0332 H   0  0  0  0  0  0  0  0  0  0  0  0
    4.0415   -0.5748    0.8731 H   0  0  0  0  0  0  0  0  0  0  0  0
    3.8779   -1.3432   -0.7241 H   0  0  0  0  0  0  0  0  0  0  0  0
    4.1061    0.4179   -0.6029 H   0  0  0  0  0  0  0  0  0  0  0  0
  1  6  1  0  0  0  0
  1 18  1  0  0  0  0
  1 19  1  0  0  0  0
  1 20  1  0  0  0  0
  2  9  1  0  0  0  0
  2 23  1  0  0  0  0
  2 24  1  0  0  0  0
  2 25  1  0  0  0  0
  3  8  2  0  0  0  0
  4  7  1  0  0  0  0
  4  8  1  0  0  0  0
  4 13  1  0  0  0  0
  4 14  1  0  0  0  0
  5  7  1  0  0  0  0
  5 10  1  0  0  0  0
  5 15  1  0  0  0  0
  5 16  1  0  0  0  0
  6  7  1  0  0  0  0
  6 11  2  0  0  0  0
  7 12  1  6  0  0  0
  8  9  1  0  0  0  0
  9 10  2  0  0  0  0
 10 17  1  0  0  0  0
 11 21  1  0  0  0  0
 11 22  1  0  0  0  0
M  END
