C17H23BrO3
 OpenBabel01061903013D

 44 44  0  0  0  0  0  0  0  0999 V2000
   -0.4538   -0.2846   -0.7340 C   0  0  1  0  0  0  0  0  0  0  0  0
   -2.4469    0.7603    0.1141 C   0  0  1  0  0  0  0  0  0  0  0  0
    1.0365   -0.3624   -0.3969 C   0  0  1  0  0  0  0  0  0  0  0  0
   -3.4565   -0.2203    0.7691 C   0  0  2  0  0  0  0  0  0  0  0  0
    1.5389    1.0223    0.0166 C   0  0  0  0  0  0  0  0  0  0  0  0
   -2.6160    2.1569    0.7156 C   0  0  0  0  0  0  0  0  0  0  0  0
    2.6862   -2.9405    1.8338 C   0  0  0  0  0  0  0  0  0  0  0  0
   -1.6752    3.1343    0.0081 C   0  0  0  0  0  0  0  0  0  0  0  0
    3.2350   -1.7571   -0.1283 O   0  0  0  0  0  0  0  0  0  0  0  0
   -0.8864   -1.6377   -1.2073 C   0  0  0  0  0  0  0  0  0  0  0  0
   -3.1807   -1.6193    0.2184 C   0  0  0  0  0  0  0  0  0  0  0  0
    2.4066   -1.9548    0.7287 C   0  0  0  0  0  0  0  0  0  0  0  0
    1.2372   -1.2965    0.6965 O   0  0  0  0  0  0  0  0  0  0  0  0
    3.8232    1.8130   -0.4259 C   0  0  0  0  0  0  0  0  0  0  0  0
    3.0299    0.9727    0.2300 C   0  0  0  0  0  0  0  0  0  0  0  0
   -1.1213    0.2701    0.3846 O   0  0  0  0  0  0  0  0  0  0  0  0
   -2.1792   -1.5897   -1.9841 C   0  0  0  0  0  0  0  0  0  0  0  0
   -3.2891   -1.5821   -1.2851 C   0  0  0  0  0  0  0  0  0  0  0  0
    5.2400    1.7658   -0.2231 C   0  0  0  0  0  0  0  0  0  0  0  0
   -5.2932    0.3198    0.3219 Br  0  0  0  0  0  0  0  0  0  0  0  0
    6.4015    1.7272   -0.0569 C   0  0  0  0  0  0  0  0  0  0  0  0
   -0.5666    0.4099   -1.5665 H   0  0  0  0  0  0  0  0  0  0  0  0
    7.4404    1.6926    0.0917 H   0  0  0  0  0  0  0  0  0  0  0  0
   -2.6142    0.7983   -0.9623 H   0  0  0  0  0  0  0  0  0  0  0  0
    1.5897   -0.7032   -1.2721 H   0  0  0  0  0  0  0  0  0  0  0  0
    3.3995    2.5315   -1.1118 H   0  0  0  0  0  0  0  0  0  0  0  0
   -3.3246   -0.2167    1.8511 H   0  0  0  0  0  0  0  0  0  0  0  0
    3.4536    0.2542    0.9160 H   0  0  0  0  0  0  0  0  0  0  0  0
   -2.1900   -1.5624   -3.0637 H   0  0  0  0  0  0  0  0  0  0  0  0
   -4.2524   -1.5506   -1.7723 H   0  0  0  0  0  0  0  0  0  0  0  0
   -0.1068   -2.0545   -1.8449 H   0  0  0  0  0  0  0  0  0  0  0  0
   -1.0181   -2.2884   -0.3428 H   0  0  0  0  0  0  0  0  0  0  0  0
    1.3080    1.7420   -0.7687 H   0  0  0  0  0  0  0  0  0  0  0  0
    1.0493    1.3250    0.9422 H   0  0  0  0  0  0  0  0  0  0  0  0
   -2.1767   -1.9329    0.5045 H   0  0  0  0  0  0  0  0  0  0  0  0
   -3.9123   -2.3205    0.6200 H   0  0  0  0  0  0  0  0  0  0  0  0
   -3.6469    2.4862    0.5854 H   0  0  0  0  0  0  0  0  0  0  0  0
   -2.3758    2.1263    1.7784 H   0  0  0  0  0  0  0  0  0  0  0  0
    1.9383   -3.7332    1.8115 H   0  0  0  0  0  0  0  0  0  0  0  0
    3.6772   -3.3720    1.6937 H   0  0  0  0  0  0  0  0  0  0  0  0
    2.6452   -2.4293    2.7957 H   0  0  0  0  0  0  0  0  0  0  0  0
   -1.7956    4.1292    0.4367 H   0  0  0  0  0  0  0  0  0  0  0  0
   -0.6443    2.8049    0.1383 H   0  0  0  0  0  0  0  0  0  0  0  0
   -1.9153    3.1649   -1.0546 H   0  0  0  0  0  0  0  0  0  0  0  0
  1 16  1  0  0  0  0
  1  3  1  0  0  0  0
  1 10  1  0  0  0  0
  1 22  1  6  0  0  0
  2 16  1  0  0  0  0
  2  4  1  0  0  0  0
  2  6  1  0  0  0  0
  2 24  1  6  0  0  0
  3 13  1  0  0  0  0
  3  5  1  0  0  0  0
  3 25  1  6  0  0  0
  4 20  1  0  0  0  0
  4 11  1  0  0  0  0
  4 27  1  1  0  0  0
  5 15  1  0  0  0  0
  5 33  1  0  0  0  0
  5 34  1  0  0  0  0
  6  8  1  0  0  0  0
  6 37  1  0  0  0  0
  6 38  1  0  0  0  0
  7 12  1  0  0  0  0
  7 39  1  0  0  0  0
  7 40  1  0  0  0  0
  7 41  1  0  0  0  0
  8 42  1  0  0  0  0
  8 43  1  0  0  0  0
  8 44  1  0  0  0  0
  9 12  2  0  0  0  0
 10 17  1  0  0  0  0
 10 31  1  0  0  0  0
 10 32  1  0  0  0  0
 11 18  1  0  0  0  0
 11 35  1  0  0  0  0
 11 36  1  0  0  0  0
 12 13  1  0  0  0  0
 14 19  1  0  0  0  0
 14 15  2  0  0  0  0
 14 26  1  0  0  0  0
 15 28  1  0  0  0  0
 17 18  2  0  0  0  0
 17 29  1  0  0  0  0
 18 30  1  0  0  0  0
 19 21  3  0  0  0  0
 21 23  1  0  0  0  0
M  END
