C6H6Cl6
 OpenBabel01061903023D

 18 18  0  0  0  0  0  0  0  0999 V2000
   -0.5852    1.1920   -0.6836 C   0  0  1  0  0  0  0  0  0  0  0  0
    0.9308    1.0211   -0.5672 C   0  0  1  0  0  0  0  0  0  0  0  0
    1.2635    0.2971    0.7390 C   0  0  1  0  0  0  0  0  0  0  0  0
    0.5934   -1.0783    0.7447 C   0  0  1  0  0  0  0  0  0  0  0  0
   -0.9226   -0.9074    0.6282 C   0  0  1  0  0  0  0  0  0  0  0  0
   -1.2554   -0.1834   -0.6779 C   0  0  1  0  0  0  0  0  0  0  0  0
   -3.0418    0.0179   -0.8151 Cl  0  0  0  0  0  0  0  0  0  0  0  0
   -1.7124   -2.5282    0.6350 Cl  0  0  0  0  0  0  0  0  0  0  0  0
    1.1979   -2.0472   -0.6504 Cl  0  0  0  0  0  0  0  0  0  0  0  0
    3.0500    0.0958    0.8762 Cl  0  0  0  0  0  0  0  0  0  0  0  0
    1.5353    0.0522   -1.9623 Cl  0  0  0  0  0  0  0  0  0  0  0  0
   -1.1897    2.1610    0.7115 Cl  0  0  0  0  0  0  0  0  0  0  0  0
   -0.8223    1.7078   -1.6142 H   0  0  0  0  0  0  0  0  0  0  0  0
    1.4082    2.0010   -0.5713 H   0  0  0  0  0  0  0  0  0  0  0  0
    0.8981    0.8829    1.5824 H   0  0  0  0  0  0  0  0  0  0  0  0
    0.8304   -1.5941    1.6752 H   0  0  0  0  0  0  0  0  0  0  0  0
   -1.2881   -0.3216    1.4717 H   0  0  0  0  0  0  0  0  0  0  0  0
   -0.8899   -0.7692   -1.5213 H   0  0  0  0  0  0  0  0  0  0  0  0
  1 12  1  0  0  0  0
  1  2  1  0  0  0  0
  1  6  1  0  0  0  0
  1 13  1  6  0  0  0
  2 11  1  0  0  0  0
  2  3  1  0  0  0  0
  2 14  1  6  0  0  0
  3 10  1  0  0  0  0
  3  4  1  0  0  0  0
  3 15  1  1  0  0  0
  4  9  1  0  0  0  0
  4  5  1  0  0  0  0
  4 16  1  1  0  0  0
  5  8  1  0  0  0  0
  5  6  1  0  0  0  0
  5 17  1  1  0  0  0
  6  7  1  0  0  0  0
  6 18  1  6  0  0  0
M  END
