C7H8O
 OpenBabel01061902313D

 16 16  0  0  0  0  0  0  0  0999 V2000
    0.3561   -0.9626   -0.0662 C   0  0  0  0  0  0  0  0  0  0  0  0
   -0.8333   -0.2605   -0.0500 C   0  0  0  0  0  0  0  0  0  0  0  0
   -0.8213    1.1222   -0.0389 C   0  0  0  0  0  0  0  0  0  0  0  0
    0.3806    1.8054   -0.0439 C   0  0  0  0  0  0  0  0  0  0  0  0
    1.5731    1.1078   -0.0605 C   0  0  0  0  0  0  0  0  0  0  0  0
    1.5637   -0.2793   -0.0712 C   0  0  0  0  0  0  0  0  0  0  0  0
    2.7353   -0.9678   -0.0872 O   0  0  0  0  0  0  0  0  0  0  0  0
   -2.1452   -1.0021   -0.0450 C   0  0  0  0  0  0  0  0  0  0  0  0
    0.3462   -2.0425   -0.0704 H   0  0  0  0  0  0  0  0  0  0  0  0
   -1.7523    1.6694   -0.0266 H   0  0  0  0  0  0  0  0  0  0  0  0
    0.3874    2.8853   -0.0352 H   0  0  0  0  0  0  0  0  0  0  0  0
    2.5117    1.6419   -0.0652 H   0  0  0  0  0  0  0  0  0  0  0  0
    3.0823   -1.1739    0.7916 H   0  0  0  0  0  0  0  0  0  0  0  0
   -2.4527   -1.1895    0.9838 H   0  0  0  0  0  0  0  0  0  0  0  0
   -2.9038   -0.4018   -0.5472 H   0  0  0  0  0  0  0  0  0  0  0  0
   -2.0281   -1.9513   -0.5679 H   0  0  0  0  0  0  0  0  0  0  0  0
  1  2  2  0  0  0  0
  1  6  1  0  0  0  0
  1  9  1  0  0  0  0
  2  3  1  0  0  0  0
  2  8  1  0  0  0  0
  3  4  2  0  0  0  0
  3 10  1  0  0  0  0
  4  5  1  0  0  0  0
  4 11  1  0  0  0  0
  5  6  2  0  0  0  0
  5 12  1  0  0  0  0
  6  7  1  0  0  0  0
  7 13  1  0  0  0  0
  8 14  1  0  0  0  0
  8 15  1  0  0  0  0
  8 16  1  0  0  0  0
M  END
