C7H6O3
 OpenBabel01061902573D

 16 16  0  0  0  0  0  0  0  0999 V2000
    2.5871    1.5849   -0.0802 O   0  0  0  0  0  0  0  0  0  0  0  0
    1.5909    0.6605   -0.0677 C   0  0  0  0  0  0  0  0  0  0  0  0
    0.2677    1.0689   -0.0645 C   0  0  0  0  0  0  0  0  0  0  0  0
   -0.7518    0.1163   -0.0516 C   0  0  0  0  0  0  0  0  0  0  0  0
   -2.1660    0.5439   -0.0486 C   0  0  0  0  0  0  0  0  0  0  0  0
   -2.4430    1.7265   -0.0574 O   0  0  0  0  0  0  0  0  0  0  0  0
   -3.1483   -0.3779   -0.0362 O   0  0  0  0  0  0  0  0  0  0  0  0
   -0.4305   -1.2427   -0.0420 C   0  0  0  0  0  0  0  0  0  0  0  0
    0.8911   -1.6381   -0.0452 C   0  0  0  0  0  0  0  0  0  0  0  0
    1.9004   -0.6928   -0.0637 C   0  0  0  0  0  0  0  0  0  0  0  0
    2.8797    1.8598    0.7995 H   0  0  0  0  0  0  0  0  0  0  0  0
    0.0257    2.1214   -0.0716 H   0  0  0  0  0  0  0  0  0  0  0  0
   -4.0580   -0.0500   -0.0347 H   0  0  0  0  0  0  0  0  0  0  0  0
   -1.2162   -1.9836   -0.0316 H   0  0  0  0  0  0  0  0  0  0  0  0
    1.1384   -2.6894   -0.0378 H   0  0  0  0  0  0  0  0  0  0  0  0
    2.9332   -1.0084   -0.0666 H   0  0  0  0  0  0  0  0  0  0  0  0
  1  2  1  0  0  0  0
  1 11  1  0  0  0  0
  2  3  1  0  0  0  0
  2 10  2  0  0  0  0
  3  4  2  0  0  0  0
  3 12  1  0  0  0  0
  4  5  1  0  0  0  0
  4  8  1  0  0  0  0
  5  6  2  0  0  0  0
  5  7  1  0  0  0  0
  7 13  1  0  0  0  0
  8  9  2  0  0  0  0
  8 14  1  0  0  0  0
  9 10  1  0  0  0  0
  9 15  1  0  0  0  0
 10 16  1  0  0  0  0
M  END
