CH6Cu2O5
 OpenBabel01061903033D

 14 13  0  0  0  0  0  0  0  0999 V2000
   -2.5201    0.3647    0.0001 Cu  0  0  0  0  0  0  0  0  0  0  0  0
    2.5201    0.3647    0.0001 Cu  0  0  0  0  0  0  0  0  0  0  0  0
   -4.6939    1.6197    0.0015 H   0  0  0  0  0  0  0  0  0  0  0  0
   -4.3242    0.2401   -0.0001 H   0  0  0  0  0  0  0  0  0  0  0  0
    4.6939    1.6197    0.0015 H   0  0  0  0  0  0  0  0  0  0  0  0
    4.3242    0.2401   -0.0001 H   0  0  0  0  0  0  0  0  0  0  0  0
   -0.0000   -2.2979    0.0020 O   0  0  0  0  0  0  0  0  0  0  0  0
   -0.0000   -1.0903   -0.0016 C   0  0  0  0  0  0  0  0  0  0  0  0
   -1.7261   -1.2599   -0.0018 H   0  0  0  0  0  0  0  0  0  0  0  0
    1.7261   -1.2599   -0.0018 H   0  0  0  0  0  0  0  0  0  0  0  0
   -1.2211   -0.3853   -0.0008 O   0  0  0  0  0  0  0  0  0  0  0  0
    1.2211   -0.3853   -0.0008 O   0  0  0  0  0  0  0  0  0  0  0  0
   -3.8192    1.1147    0.0009 O   0  0  0  0  0  0  0  0  0  0  0  0
    3.8192    1.1147    0.0009 O   0  0  0  0  0  0  0  0  0  0  0  0
  1 11  1  0  0  0  0
  1 13  1  0  0  0  0
  2 12  1  0  0  0  0
  2 14  1  0  0  0  0
  3 13  1  0  0  0  0
  4 13  1  0  0  0  0
  5 14  1  0  0  0  0
  6 14  1  0  0  0  0
  7  8  2  0  0  0  0
  8 11  1  0  0  0  0
  8 12  1  0  0  0  0
  9 11  1  0  0  0  0
 10 12  1  0  0  0  0
M  RAD  2   1   2   2   2
M  END
