C4H4O4
 OpenBabel01061903033D

 12 11  0  0  0  0  0  0  0  0999 V2000
   -1.4422    0.2497   -0.1175 C   0  0  0  0  0  0  0  0  0  0  0  0
   -0.6653   -0.9838    0.1118 C   0  0  0  0  0  0  0  0  0  0  0  0
    0.6623   -0.9887   -0.0910 C   0  0  0  0  0  0  0  0  0  0  0  0
    1.4461    0.2429    0.1244 C   0  0  0  0  0  0  0  0  0  0  0  0
    0.9225    1.2155    0.6292 O   0  0  0  0  0  0  0  0  0  0  0  0
    2.7429    0.2884   -0.2389 O   0  0  0  0  0  0  0  0  0  0  0  0
   -0.9020    1.2281   -0.5926 O   0  0  0  0  0  0  0  0  0  0  0  0
   -2.7524    0.2887    0.1951 O   0  0  0  0  0  0  0  0  0  0  0  0
   -1.1644   -1.8826    0.4427 H   0  0  0  0  0  0  0  0  0  0  0  0
    1.1562   -1.8939   -0.4118 H   0  0  0  0  0  0  0  0  0  0  0  0
    3.2152    1.1168   -0.0779 H   0  0  0  0  0  0  0  0  0  0  0  0
   -3.2194    1.1186    0.0270 H   0  0  0  0  0  0  0  0  0  0  0  0
  1  2  1  0  0  0  0
  1  7  2  0  0  0  0
  1  8  1  0  0  0  0
  2  3  2  0  0  0  0
  2  9  1  0  0  0  0
  3  4  1  0  0  0  0
  3 10  1  0  0  0  0
  4  5  2  0  0  0  0
  4  6  1  0  0  0  0
  6 11  1  0  0  0  0
  8 12  1  0  0  0  0
M  END
