C3H4O4
 OpenBabel01061903033D

 11 10  0  0  0  0  0  0  0  0999 V2000
    1.2305    0.2283   -0.0018 C   0  0  0  0  0  0  0  0  0  0  0  0
   -0.0000   -0.6418   -0.0015 C   0  0  0  0  0  0  0  0  0  0  0  0
   -1.2305    0.2283    0.0002 C   0  0  0  0  0  0  0  0  0  0  0  0
   -1.1196    1.4314    0.0012 O   0  0  0  0  0  0  0  0  0  0  0  0
   -2.4496   -0.3334    0.0008 O   0  0  0  0  0  0  0  0  0  0  0  0
    1.1196    1.4314   -0.0007 O   0  0  0  0  0  0  0  0  0  0  0  0
    2.4496   -0.3334    0.0023 O   0  0  0  0  0  0  0  0  0  0  0  0
   -0.0007   -1.2704   -0.8920 H   0  0  0  0  0  0  0  0  0  0  0  0
    0.0007   -1.2718    0.8880 H   0  0  0  0  0  0  0  0  0  0  0  0
   -3.2088    0.2655    0.0019 H   0  0  0  0  0  0  0  0  0  0  0  0
    3.2088    0.2655    0.0020 H   0  0  0  0  0  0  0  0  0  0  0  0
  1  2  1  0  0  0  0
  1  6  2  0  0  0  0
  1  7  1  0  0  0  0
  2  3  1  0  0  0  0
  2  8  1  0  0  0  0
  2  9  1  0  0  0  0
  3  4  2  0  0  0  0
  3  5  1  0  0  0  0
  5 10  1  0  0  0  0
  7 11  1  0  0  0  0
M  END
