C6H6O3
 OpenBabel01061903043D

 15 15  0  0  0  0  0  0  0  0999 V2000
    2.1779   -0.5335   -0.0009 C   0  0  0  0  0  0  0  0  0  0  0  0
   -0.9364   -2.6326    0.0020 H   0  0  0  0  0  0  0  0  0  0  0  0
   -2.5783   -0.9315   -0.0026 O   0  0  0  0  0  0  0  0  0  0  0  0
   -0.1095   -2.1312    0.0010 O   0  0  0  0  0  0  0  0  0  0  0  0
   -1.5868   -0.2179    0.0011 C   0  0  0  0  0  0  0  0  0  0  0  0
    0.7870    0.0467   -0.0006 C   0  0  0  0  0  0  0  0  0  0  0  0
   -0.2808   -0.7812    0.0003 C   0  0  0  0  0  0  0  0  0  0  0  0
    0.6253    1.3771   -0.0008 O   0  0  0  0  0  0  0  0  0  0  0  0
   -1.7058    1.1944    0.0013 C   0  0  0  0  0  0  0  0  0  0  0  0
   -0.5858    1.9453   -0.0001 C   0  0  0  0  0  0  0  0  0  0  0  0
   -2.6792    1.6623    0.0015 H   0  0  0  0  0  0  0  0  0  0  0  0
   -0.6677    3.0221    0.0000 H   0  0  0  0  0  0  0  0  0  0  0  0
    2.9088    0.2751   -0.0013 H   0  0  0  0  0  0  0  0  0  0  0  0
    2.3156   -1.1474    0.8892 H   0  0  0  0  0  0  0  0  0  0  0  0
    2.3151   -1.1477   -0.8908 H   0  0  0  0  0  0  0  0  0  0  0  0
  1  6  1  0  0  0  0
  1 13  1  0  0  0  0
  1 14  1  0  0  0  0
  1 15  1  0  0  0  0
  2  4  1  0  0  0  0
  3  5  2  0  0  0  0
  4  7  1  0  0  0  0
  5  9  1  0  0  0  0
  5  7  1  0  0  0  0
  6  8  1  0  0  0  0
  6  7  2  0  0  0  0
  8 10  1  0  0  0  0
  9 10  2  0  0  0  0
  9 11  1  0  0  0  0
 10 12  1  0  0  0  0
M  END
