C11H18ClNO3
 OpenBabel01061903063D

 34 32  0  0  0  0  0  0  0  0999 V2000
   14.9998    0.7964    0.2194 H   0  3  0  0  0  0  0  0  0  0  0  0
   -0.7909    2.7031    1.3732 H   0  0  0  0  0  0  0  0  0  0  0  0
   -1.8663    1.4495    2.0368 H   0  0  0  0  0  0  0  0  0  0  0  0
    1.0105    2.1195   -0.1421 H   0  0  0  0  0  0  0  0  0  0  0  0
   -1.5634   -0.8835    1.4527 H   0  0  0  0  0  0  0  0  0  0  0  0
   -1.8173    2.3998   -0.8635 H   0  0  0  0  0  0  0  0  0  0  0  0
   -2.8928    1.1461   -0.1999 H   0  0  0  0  0  0  0  0  0  0  0  0
   -1.3627   -4.2709    1.5811 H   0  0  0  0  0  0  0  0  0  0  0  0
   -2.1033   -2.8190    0.8658 H   0  0  0  0  0  0  0  0  0  0  0  0
   -1.2620   -2.7100    2.4306 H   0  0  0  0  0  0  0  0  0  0  0  0
    3.0883    2.3630   -0.2576 H   0  0  0  0  0  0  0  0  0  0  0  0
    2.2481    2.2544   -1.8230 H   0  0  0  0  0  0  0  0  0  0  0  0
    4.0060    1.9889   -1.7362 H   0  0  0  0  0  0  0  0  0  0  0  0
    2.1872   -1.9386   -2.5680 H   0  0  0  0  0  0  0  0  0  0  0  0
    1.1119   -3.1922   -1.9042 H   0  0  0  0  0  0  0  0  0  0  0  0
    2.8619   -3.4941   -2.0261 H   0  0  0  0  0  0  0  0  0  0  0  0
    0.7964    1.0784    0.0498 C   0  0  0  0  0  0  0  0  0  0  0  0
   -0.6512   -0.6092    0.9436 C   0  0  0  0  0  0  0  0  0  0  0  0
   -1.3378    1.7881    1.1457 C   0  0  0  0  0  0  0  0  0  0  0  0
   -2.3459    2.0612    0.0276 C   0  0  0  0  0  0  0  0  0  0  0  0
   -1.2648   -3.1928    1.4534 C   0  0  0  0  0  0  0  0  0  0  0  0
    3.0579    1.8474   -1.2175 C   0  0  0  0  0  0  0  0  0  0  0  0
    2.1005   -2.7385   -1.8326 C   0  0  0  0  0  0  0  0  0  0  0  0
   -0.3701    0.7221    0.7002 C   0  0  0  0  0  0  0  0  0  0  0  0
    0.2363   -1.5932    0.5349 C   0  0  0  0  0  0  0  0  0  0  0  0
    1.6894    0.1006   -0.3616 C   0  0  0  0  0  0  0  0  0  0  0  0
    1.4103   -1.2390   -0.1193 C   0  0  0  0  0  0  0  0  0  0  0  0
   -3.9658    3.2988   -0.2598 H   0  0  0  0  0  0  0  0  0  0  0  0
   -3.7452    2.8377    1.3228 H   0  0  0  0  0  0  0  0  0  0  0  0
   -0.0409   -2.9026    0.7752 O   0  0  0  0  0  0  0  0  0  0  0  0
    2.8367    0.4521   -1.0018 O   0  0  0  0  0  0  0  0  0  0  0  0
    2.2844   -2.2016   -0.5211 O   0  0  0  0  0  0  0  0  0  0  0  0
  -15.2577   -0.7228   -0.5395 Cl  0  5  0  0  0  0  0  0  0  0  0  0
   -3.2891    3.1002    0.4619 N   0  0  0  0  0  0  0  0  0  0  0  0
  2 19  1  0  0  0  0
  3 19  1  0  0  0  0
  4 17  1  0  0  0  0
  5 18  1  0  0  0  0
  6 20  1  0  0  0  0
  7 20  1  0  0  0  0
  8 21  1  0  0  0  0
  9 21  1  0  0  0  0
 10 21  1  0  0  0  0
 11 22  1  0  0  0  0
 12 22  1  0  0  0  0
 13 22  1  0  0  0  0
 14 23  1  0  0  0  0
 15 23  1  0  0  0  0
 16 23  1  0  0  0  0
 17 24  2  0  0  0  0
 17 26  1  0  0  0  0
 18 24  1  0  0  0  0
 18 25  2  0  0  0  0
 19 24  1  0  0  0  0
 19 20  1  0  0  0  0
 20 34  1  0  0  0  0
 21 30  1  0  0  0  0
 22 31  1  0  0  0  0
 23 32  1  0  0  0  0
 25 30  1  0  0  0  0
 25 27  1  0  0  0  0
 26 31  1  0  0  0  0
 26 27  2  0  0  0  0
 27 32  1  0  0  0  0
 28 34  1  0  0  0  0
 29 34  1  0  0  0  0
M  CHG  2   1   1  33  -1
M  END
