C11H17NO3
 OpenBabel01061903063D

 32 32  0  0  0  0  0  0  0  0999 V2000
    0.2316   -1.2244    0.1536 C   0  0  0  0  0  0  0  0  0  0  0  0
    0.2508    1.1719    0.1521 C   0  0  0  0  0  0  0  0  0  0  0  0
    2.3797   -0.0431    0.6528 C   0  0  0  0  0  0  0  0  0  0  0  0
    3.2048   -0.0509   -0.6357 C   0  0  0  0  0  0  0  0  0  0  0  0
   -4.0341    0.0085    0.4601 C   0  0  0  0  0  0  0  0  0  0  0  0
   -1.0366   -3.5948   -0.1371 C   0  0  0  0  0  0  0  0  0  0  0  0
   -0.9793    3.5620   -0.1407 C   0  0  0  0  0  0  0  0  0  0  0  0
    5.2018   -0.0674   -1.1360 H   0  0  0  0  0  0  0  0  0  0  0  0
    4.8738    0.7178    0.2929 H   0  0  0  0  0  0  0  0  0  0  0  0
   -1.7873   -0.0103   -0.3219 C   0  0  0  0  0  0  0  0  0  0  0  0
   -1.1186   -1.2181   -0.1623 C   0  0  0  0  0  0  0  0  0  0  0  0
   -1.0993    1.1869   -0.1637 C   0  0  0  0  0  0  0  0  0  0  0  0
    0.9124   -0.0316    0.3096 C   0  0  0  0  0  0  0  0  0  0  0  0
   -3.1125    0.0002   -0.6319 O   0  0  0  0  0  0  0  0  0  0  0  0
   -1.7875   -2.3922   -0.3160 O   0  0  0  0  0  0  0  0  0  0  0  0
   -1.7494    2.3714   -0.3181 O   0  0  0  0  0  0  0  0  0  0  0  0
    4.6352   -0.0622   -0.3011 N   0  0  0  0  0  0  0  0  0  0  0  0
    0.7509   -2.1626    0.2822 H   0  0  0  0  0  0  0  0  0  0  0  0
    0.7863    2.1017    0.2748 H   0  0  0  0  0  0  0  0  0  0  0  0
    2.6093   -0.9345    1.2366 H   0  0  0  0  0  0  0  0  0  0  0  0
    2.6237    0.8454    1.2351 H   0  0  0  0  0  0  0  0  0  0  0  0
    2.9609   -0.9394   -1.2180 H   0  0  0  0  0  0  0  0  0  0  0  0
    2.9753    0.8405   -1.2195 H   0  0  0  0  0  0  0  0  0  0  0  0
   -3.8686    0.8977    1.0684 H   0  0  0  0  0  0  0  0  0  0  0  0
   -5.0538    0.0164    0.0749 H   0  0  0  0  0  0  0  0  0  0  0  0
   -3.8830   -0.8822    1.0699 H   0  0  0  0  0  0  0  0  0  0  0  0
   -0.6275   -3.6209    0.8728 H   0  0  0  0  0  0  0  0  0  0  0  0
   -1.6881   -4.4557   -0.2876 H   0  0  0  0  0  0  0  0  0  0  0  0
   -0.2215   -3.6252   -0.8602 H   0  0  0  0  0  0  0  0  0  0  0  0
   -1.6170    4.4330   -0.2915 H   0  0  0  0  0  0  0  0  0  0  0  0
   -0.5692    3.5824    0.8690 H   0  0  0  0  0  0  0  0  0  0  0  0
   -0.1643    3.5787   -0.8643 H   0  0  0  0  0  0  0  0  0  0  0  0
  1 11  1  0  0  0  0
  1 13  2  0  0  0  0
  1 18  1  0  0  0  0
  2 12  2  0  0  0  0
  2 13  1  0  0  0  0
  2 19  1  0  0  0  0
  3 13  1  0  0  0  0
  3  4  1  0  0  0  0
  3 20  1  0  0  0  0
  3 21  1  0  0  0  0
  4 17  1  0  0  0  0
  4 22  1  0  0  0  0
  4 23  1  0  0  0  0
  5 14  1  0  0  0  0
  5 24  1  0  0  0  0
  5 25  1  0  0  0  0
  5 26  1  0  0  0  0
  6 15  1  0  0  0  0
  6 27  1  0  0  0  0
  6 28  1  0  0  0  0
  6 29  1  0  0  0  0
  7 16  1  0  0  0  0
  7 30  1  0  0  0  0
  7 31  1  0  0  0  0
  7 32  1  0  0  0  0
  8 17  1  0  0  0  0
  9 17  1  0  0  0  0
 10 14  1  0  0  0  0
 10 11  2  0  0  0  0
 10 12  1  0  0  0  0
 11 15  1  0  0  0  0
 12 16  1  0  0  0  0
M  END
