C5H6N2
 OpenBabel01061903083D

 13 13  0  0  0  0  0  0  0  0999 V2000
    2.0711    0.0014    0.0010 C   0  0  0  0  0  0  0  0  0  0  0  0
    0.5642    0.0155    0.0010 C   0  0  0  0  0  0  0  0  0  0  0  0
   -0.0857    1.1659   -0.0003 N   0  0  0  0  0  0  0  0  0  0  0  0
   -1.4072    1.1783   -0.0007 C   0  0  0  0  0  0  0  0  0  0  0  0
   -2.1101   -0.0133    0.0007 C   0  0  0  0  0  0  0  0  0  0  0  0
   -1.4602   -1.1639    0.0020 N   0  0  0  0  0  0  0  0  0  0  0  0
   -0.1390   -1.1764   -0.0033 C   0  0  0  0  0  0  0  0  0  0  0  0
    2.4345   -0.0008    1.0287 H   0  0  0  0  0  0  0  0  0  0  0  0
    2.4261   -0.8926   -0.5118 H   0  0  0  0  0  0  0  0  0  0  0  0
    2.4428    0.8873   -0.5139 H   0  0  0  0  0  0  0  0  0  0  0  0
   -1.9384    2.1186   -0.0018 H   0  0  0  0  0  0  0  0  0  0  0  0
   -3.1901   -0.0031    0.0011 H   0  0  0  0  0  0  0  0  0  0  0  0
    0.3922   -2.1168   -0.0022 H   0  0  0  0  0  0  0  0  0  0  0  0
  1  2  1  0  0  0  0
  1  8  1  0  0  0  0
  1  9  1  0  0  0  0
  1 10  1  0  0  0  0
  2  3  2  0  0  0  0
  2  7  1  0  0  0  0
  3  4  1  0  0  0  0
  4  5  2  0  0  0  0
  4 11  1  0  0  0  0
  5  6  1  0  0  0  0
  5 12  1  0  0  0  0
  6  7  2  0  0  0  0
  7 13  1  0  0  0  0
M  END
