C16H15Cl3O2
 OpenBabel01061903073D

 36 37  0  0  0  0  0  0  0  0999 V2000
    5.4703    1.6381    0.0814 C   0  0  0  0  0  0  0  0  0  0  0  0
    4.4241    1.4921   -0.8811 O   0  0  0  0  0  0  0  0  0  0  0  0
    3.3527    0.7389   -0.5183 C   0  0  0  0  0  0  0  0  0  0  0  0
    2.3006    0.5552   -1.4038 C   0  0  0  0  0  0  0  0  0  0  0  0
    1.2126   -0.2108   -1.0326 C   0  0  0  0  0  0  0  0  0  0  0  0
    1.1714   -0.7939    0.2205 C   0  0  0  0  0  0  0  0  0  0  0  0
   -0.0170   -1.6286    0.6230 C   0  0  1  0  0  0  0  0  0  0  0  0
   -1.2867   -0.8898    0.2870 C   0  0  0  0  0  0  0  0  0  0  0  0
   -2.0897   -1.3327   -0.7478 C   0  0  0  0  0  0  0  0  0  0  0  0
   -3.2542   -0.6572   -1.0577 C   0  0  0  0  0  0  0  0  0  0  0  0
   -3.6179    0.4661   -0.3294 C   0  0  0  0  0  0  0  0  0  0  0  0
   -4.7633    1.1321   -0.6320 O   0  0  0  0  0  0  0  0  0  0  0  0
   -5.0748    2.2801    0.1599 C   0  0  0  0  0  0  0  0  0  0  0  0
   -2.8108    0.9082    0.7088 C   0  0  0  0  0  0  0  0  0  0  0  0
   -1.6498    0.2263    1.0179 C   0  0  0  0  0  0  0  0  0  0  0  0
    0.0145   -2.9585   -0.1328 C   0  0  0  0  0  0  0  0  0  0  0  0
    1.4249   -3.9336    0.4249 Cl  0  0  0  0  0  0  0  0  0  0  0  0
   -1.5091   -3.8679    0.1873 Cl  0  0  0  0  0  0  0  0  0  0  0  0
    0.1648   -2.6414   -1.9013 Cl  0  0  0  0  0  0  0  0  0  0  0  0
    2.2189   -0.6127    1.1047 C   0  0  0  0  0  0  0  0  0  0  0  0
    3.3117    0.1477    0.7361 C   0  0  0  0  0  0  0  0  0  0  0  0
    6.2622    2.2609   -0.3345 H   0  0  0  0  0  0  0  0  0  0  0  0
    5.0732    2.1079    0.9812 H   0  0  0  0  0  0  0  0  0  0  0  0
    5.8734    0.6567    0.3315 H   0  0  0  0  0  0  0  0  0  0  0  0
    2.3320    1.0111   -2.3824 H   0  0  0  0  0  0  0  0  0  0  0  0
    0.3934   -0.3541   -1.7215 H   0  0  0  0  0  0  0  0  0  0  0  0
    0.0195   -1.8193    1.6956 H   0  0  0  0  0  0  0  0  0  0  0  0
   -1.8061   -2.2072   -1.3145 H   0  0  0  0  0  0  0  0  0  0  0  0
   -3.8807   -1.0031   -1.8666 H   0  0  0  0  0  0  0  0  0  0  0  0
   -6.0119    2.7165   -0.1858 H   0  0  0  0  0  0  0  0  0  0  0  0
   -5.1751    1.9847    1.2043 H   0  0  0  0  0  0  0  0  0  0  0  0
   -4.2751    3.0147    0.0652 H   0  0  0  0  0  0  0  0  0  0  0  0
   -3.0918    1.7824    1.2773 H   0  0  0  0  0  0  0  0  0  0  0  0
   -1.0211    0.5701    1.8260 H   0  0  0  0  0  0  0  0  0  0  0  0
    2.1843   -1.0692    2.0828 H   0  0  0  0  0  0  0  0  0  0  0  0
    4.1298    0.2887    1.4270 H   0  0  0  0  0  0  0  0  0  0  0  0
  1  2  1  0  0  0  0
  1 22  1  0  0  0  0
  1 23  1  0  0  0  0
  1 24  1  0  0  0  0
  2  3  1  0  0  0  0
  3  4  2  0  0  0  0
  3 21  1  0  0  0  0
  4  5  1  0  0  0  0
  4 25  1  0  0  0  0
  5  6  2  0  0  0  0
  5 26  1  0  0  0  0
  6  7  1  0  0  0  0
  6 20  1  0  0  0  0
  7  8  1  0  0  0  0
  7 16  1  0  0  0  0
  7 27  1  1  0  0  0
  8  9  2  0  0  0  0
  8 15  1  0  0  0  0
  9 10  1  0  0  0  0
  9 28  1  0  0  0  0
 10 11  2  0  0  0  0
 10 29  1  0  0  0  0
 11 12  1  0  0  0  0
 11 14  1  0  0  0  0
 12 13  1  0  0  0  0
 13 30  1  0  0  0  0
 13 31  1  0  0  0  0
 13 32  1  0  0  0  0
 14 15  2  0  0  0  0
 14 33  1  0  0  0  0
 15 34  1  0  0  0  0
 16 17  1  0  0  0  0
 16 18  1  0  0  0  0
 16 19  1  0  0  0  0
 20 21  2  0  0  0  0
 20 35  1  0  0  0  0
 21 36  1  0  0  0  0
M  END
