C6H5NO2
 OpenBabel01061903093D

 14 14  0  0  0  0  0  0  0  0999 V2000
   -0.1666    1.1971   -0.0005 C   0  0  0  0  0  0  0  0  0  0  0  0
   -0.1666   -1.1971   -0.0004 C   0  0  0  0  0  0  0  0  0  0  0  0
    1.2157    1.1971   -0.0004 C   0  0  0  0  0  0  0  0  0  0  0  0
    1.2157   -1.1971    0.0003 C   0  0  0  0  0  0  0  0  0  0  0  0
    1.9069    0.0000   -0.0002 C   0  0  0  0  0  0  0  0  0  0  0  0
   -0.8578    0.0000   -0.0005 C   0  0  0  0  0  0  0  0  0  0  0  0
   -2.9470    1.0548   -0.0000 O   0  0  0  0  0  0  0  0  0  0  0  0
   -2.9470   -1.0548   -0.0003 O   0  5  0  0  0  0  0  0  0  0  0  0
   -2.3380    0.0000   -0.0002 N   0  3  0  0  0  0  0  0  0  0  0  0
   -0.7066    2.1324    0.0039 H   0  0  0  0  0  0  0  0  0  0  0  0
   -0.7066   -2.1325   -0.0004 H   0  0  0  0  0  0  0  0  0  0  0  0
    1.7557    2.1325   -0.0007 H   0  0  0  0  0  0  0  0  0  0  0  0
    1.7557   -2.1325    0.0008 H   0  0  0  0  0  0  0  0  0  0  0  0
    2.9869    0.0000   -0.0008 H   0  0  0  0  0  0  0  0  0  0  0  0
  1  6  1  0  0  0  0
  1  3  2  0  0  0  0
  1 10  1  0  0  0  0
  2  6  2  0  0  0  0
  2  4  1  0  0  0  0
  2 11  1  0  0  0  0
  3  5  1  0  0  0  0
  3 12  1  0  0  0  0
  4  5  2  0  0  0  0
  4 13  1  0  0  0  0
  5 14  1  0  0  0  0
  6  9  1  0  0  0  0
  7  9  2  0  0  0  0
  8  9  1  0  0  0  0
M  CHG  2   8  -1   9   1
M  END
