C17H19NO3
 OpenBabel01061903103D

 40 44  0  0  0  0  0  0  0  0999 V2000
   -0.9441   -2.1757    1.2894 C   0  0  0  0  0  0  0  0  0  0  0  0
   -2.2214   -2.3324    0.7755 C   0  0  0  0  0  0  0  0  0  0  0  0
   -2.7699   -1.4906   -0.1907 C   0  0  0  0  0  0  0  0  0  0  0  0
   -4.0351   -1.6714   -0.6556 O   0  0  0  0  0  0  0  0  0  0  0  0
   -1.9606   -0.4519   -0.6598 C   0  0  0  0  0  0  0  0  0  0  0  0
   -0.6699   -0.3624   -0.1530 C   0  0  0  0  0  0  0  0  0  0  0  0
   -0.0095    0.8036   -0.8457 C   0  0  1  0  0  0  0  0  0  0  0  0
   -1.2370    1.6457   -1.1787 C   0  0  1  0  0  0  0  0  0  0  0  0
   -1.0706    2.3604   -1.9847 H   0  0  0  0  0  0  0  0  0  0  0  0
   -2.1902    0.5712   -1.5154 O   0  0  0  0  0  0  0  0  0  0  0  0
   -1.8186    2.2804    0.0899 C   0  0  1  0  0  0  0  0  0  0  0  0
   -2.3254    3.2044   -0.1886 H   0  0  0  0  0  0  0  0  0  0  0  0
   -2.7871    1.3848    0.6395 O   0  0  0  0  0  0  0  0  0  0  0  0
   -0.8210    2.5924    1.1451 C   0  0  0  0  0  0  0  0  0  0  0  0
    0.4114    2.1958    1.1827 C   0  0  0  0  0  0  0  0  0  0  0  0
    1.0062    1.3893    0.1065 C   0  0  2  0  0  0  0  0  0  0  0  0
    1.6145    2.0601   -0.5001 H   0  0  0  0  0  0  0  0  0  0  0  0
    1.9202    0.2708    0.5887 C   0  0  1  0  0  0  0  0  0  0  0  0
    2.6838    0.7116    1.2295 H   0  0  0  0  0  0  0  0  0  0  0  0
    1.2283   -0.8332    1.3710 C   0  0  0  0  0  0  0  0  0  0  0  0
   -0.1325   -1.1515    0.8344 C   0  0  0  0  0  0  0  0  0  0  0  0
    2.5933   -0.3084   -0.5866 N   0  0  0  0  0  0  0  0  0  0  0  0
    3.5801   -1.3191   -0.1832 C   0  0  0  0  0  0  0  0  0  0  0  0
    1.6541   -0.8545   -1.5697 C   0  0  0  0  0  0  0  0  0  0  0  0
    0.7159    0.2837   -2.0891 C   0  0  0  0  0  0  0  0  0  0  0  0
   -0.5829   -2.8519    2.0501 H   0  0  0  0  0  0  0  0  0  0  0  0
   -2.8237   -3.1502    1.1427 H   0  0  0  0  0  0  0  0  0  0  0  0
   -4.7104   -1.1948   -0.1536 H   0  0  0  0  0  0  0  0  0  0  0  0
   -3.2075    1.7080    1.4481 H   0  0  0  0  0  0  0  0  0  0  0  0
   -1.1569    3.2124    1.9631 H   0  0  0  0  0  0  0  0  0  0  0  0
    1.0171    2.4529    2.0391 H   0  0  0  0  0  0  0  0  0  0  0  0
    1.8262   -1.7416    1.2972 H   0  0  0  0  0  0  0  0  0  0  0  0
    1.1737   -0.5378    2.4188 H   0  0  0  0  0  0  0  0  0  0  0  0
    3.0649   -2.1799    0.2431 H   0  0  0  0  0  0  0  0  0  0  0  0
    4.1543   -1.6342   -1.0545 H   0  0  0  0  0  0  0  0  0  0  0  0
    4.2531   -0.8932    0.5609 H   0  0  0  0  0  0  0  0  0  0  0  0
    2.2123   -1.2423   -2.4218 H   0  0  0  0  0  0  0  0  0  0  0  0
    1.0889   -1.6668   -1.1127 H   0  0  0  0  0  0  0  0  0  0  0  0
   -0.0278   -0.1303   -2.7700 H   0  0  0  0  0  0  0  0  0  0  0  0
    1.3047    1.0456   -2.5999 H   0  0  0  0  0  0  0  0  0  0  0  0
  1  2  2  0  0  0  0
  1 21  1  0  0  0  0
  1 26  1  0  0  0  0
  2  3  1  0  0  0  0
  2 27  1  0  0  0  0
  3  4  1  0  0  0  0
  3  5  2  0  0  0  0
  4 28  1  0  0  0  0
  5  6  1  0  0  0  0
  5 10  1  0  0  0  0
  6 21  2  0  0  0  0
  7  6  1  1  0  0  0
  7  8  1  0  0  0  0
  7 16  1  0  0  0  0
  7 25  1  0  0  0  0
  8  9  1  6  0  0  0
  8 10  1  0  0  0  0
  8 11  1  0  0  0  0
 11 12  1  6  0  0  0
 11 13  1  0  0  0  0
 11 14  1  0  0  0  0
 13 29  1  0  0  0  0
 14 15  2  0  0  0  0
 14 30  1  0  0  0  0
 15 16  1  0  0  0  0
 15 31  1  0  0  0  0
 16 17  1  6  0  0  0
 16 18  1  0  0  0  0
 18 19  1  1  0  0  0
 18 20  1  0  0  0  0
 18 22  1  0  0  0  0
 20 21  1  0  0  0  0
 20 32  1  0  0  0  0
 20 33  1  0  0  0  0
 22 23  1  0  0  0  0
 22 24  1  0  0  0  0
 23 34  1  0  0  0  0
 23 35  1  0  0  0  0
 23 36  1  0  0  0  0
 24 25  1  0  0  0  0
 24 37  1  0  0  0  0
 24 38  1  0  0  0  0
 25 39  1  0  0  0  0
 25 40  1  0  0  0  0
M  END
