C8H16N2O5
 OpenBabel01061903113D

 31 31  0  0  0  0  0  0  0  0999 V2000
   -0.7588    0.1932    0.1858 C   0  0  1  0  0  0  0  0  0  0  0  0
   -0.1516   -1.1043   -0.3540 C   0  0  1  0  0  0  0  0  0  0  0  0
    2.0734   -0.2280   -0.1713 C   0  0  1  0  0  0  0  0  0  0  0  0
    1.5551    1.1055    0.3772 C   0  0  2  0  0  0  0  0  0  0  0  0
    0.1532    1.3677   -0.1816 C   0  0  2  0  0  0  0  0  0  0  0  0
    3.4487   -0.5265    0.4291 C   0  0  0  0  0  0  0  0  0  0  0  0
   -4.5279    0.0263   -0.4630 C   0  0  0  0  0  0  0  0  0  0  0  0
   -2.1805    0.9514   -1.1970 H   0  0  0  0  0  0  0  0  0  0  0  0
    0.1605    3.3587    0.1890 H   0  0  0  0  0  0  0  0  0  0  0  0
    3.3418    2.0552    0.2950 H   0  0  0  0  0  0  0  0  0  0  0  0
    4.8547   -1.9601    0.1663 H   0  0  0  0  0  0  0  0  0  0  0  0
   -0.6114   -3.1103   -0.2997 H   0  0  0  0  0  0  0  0  0  0  0  0
   -1.1090   -2.2703    1.0467 H   0  0  0  0  0  0  0  0  0  0  0  0
   -3.0439   -0.8764    1.1346 O   0  0  0  0  0  0  0  0  0  0  0  0
   -0.3686    2.5727    0.3824 O   0  0  0  0  0  0  0  0  0  0  0  0
    2.4339    2.1596   -0.0210 O   0  0  0  0  0  0  0  0  0  0  0  0
    3.9822   -1.7102   -0.1676 O   0  0  0  0  0  0  0  0  0  0  0  0
   -3.1658   -0.1839    0.1464 C   0  0  0  0  0  0  0  0  0  0  0  0
    1.1631   -1.2719    0.1805 O   0  0  0  0  0  0  0  0  0  0  0  0
   -0.9915   -2.2415    0.0450 N   0  0  0  0  0  0  0  0  0  0  0  0
   -2.0830    0.3976   -0.4066 N   0  0  0  0  0  0  0  0  0  0  0  0
   -0.8509    0.1288    1.2700 H   0  0  0  0  0  0  0  0  0  0  0  0
   -0.0983   -1.0557   -1.4416 H   0  0  0  0  0  0  0  0  0  0  0  0
    2.1558   -0.1679   -1.2565 H   0  0  0  0  0  0  0  0  0  0  0  0
    1.5112    1.0595    1.4654 H   0  0  0  0  0  0  0  0  0  0  0  0
    0.2050    1.4638   -1.2661 H   0  0  0  0  0  0  0  0  0  0  0  0
    4.1188    0.3113    0.2365 H   0  0  0  0  0  0  0  0  0  0  0  0
    3.3513   -0.6740    1.5047 H   0  0  0  0  0  0  0  0  0  0  0  0
   -4.4393    0.6718   -1.3369 H   0  0  0  0  0  0  0  0  0  0  0  0
   -4.9444   -0.9355   -0.7625 H   0  0  0  0  0  0  0  0  0  0  0  0
   -5.1853    0.4947    0.2694 H   0  0  0  0  0  0  0  0  0  0  0  0
  1 21  1  0  0  0  0
  1 22  1  1  0  0  0
  1  2  1  0  0  0  0
  1  5  1  0  0  0  0
  2 23  1  6  0  0  0
  2 19  1  0  0  0  0
  2 20  1  0  0  0  0
  3 19  1  0  0  0  0
  3 24  1  6  0  0  0
  3  4  1  0  0  0  0
  3  6  1  0  0  0  0
  4 25  1  1  0  0  0
  4  5  1  0  0  0  0
  4 16  1  0  0  0  0
  5 26  1  6  0  0  0
  5 15  1  0  0  0  0
  6 17  1  0  0  0  0
  6 27  1  0  0  0  0
  6 28  1  0  0  0  0
  7 18  1  0  0  0  0
  7 29  1  0  0  0  0
  7 30  1  0  0  0  0
  7 31  1  0  0  0  0
  8 21  1  0  0  0  0
  9 15  1  0  0  0  0
 10 16  1  0  0  0  0
 11 17  1  0  0  0  0
 12 20  1  0  0  0  0
 13 20  1  0  0  0  0
 14 18  2  0  0  0  0
 18 21  1  0  0  0  0
M  END
