C10H8O
 OpenBabel01061903113D

 19 20  0  0  0  0  0  0  0  0999 V2000
   -1.4645    0.8299   -0.0574 C   0  0  0  0  0  0  0  0  0  0  0  0
   -2.3789   -0.1853   -0.0527 C   0  0  0  0  0  0  0  0  0  0  0  0
   -1.9704   -1.5164   -0.0412 C   0  0  0  0  0  0  0  0  0  0  0  0
   -0.6495   -1.8456   -0.0343 C   0  0  0  0  0  0  0  0  0  0  0  0
    0.3229   -0.8306   -0.0389 C   0  0  0  0  0  0  0  0  0  0  0  0
    1.6947   -1.1347   -0.0315 C   0  0  0  0  0  0  0  0  0  0  0  0
    2.6083   -0.1255   -0.0358 C   0  0  0  0  0  0  0  0  0  0  0  0
    2.2039    1.2076   -0.0474 C   0  0  0  0  0  0  0  0  0  0  0  0
    0.8832    1.5393   -0.0543 C   0  0  0  0  0  0  0  0  0  0  0  0
   -0.0877    0.5256   -0.0506 C   0  0  0  0  0  0  0  0  0  0  0  0
   -1.8788    2.1231   -0.0742 O   0  0  0  0  0  0  0  0  0  0  0  0
   -3.4334    0.0479   -0.0575 H   0  0  0  0  0  0  0  0  0  0  0  0
   -2.7133   -2.3002   -0.0373 H   0  0  0  0  0  0  0  0  0  0  0  0
   -0.3497   -2.8832   -0.0251 H   0  0  0  0  0  0  0  0  0  0  0  0
    2.0225   -2.1637   -0.0221 H   0  0  0  0  0  0  0  0  0  0  0  0
    3.6621   -0.3617   -0.0298 H   0  0  0  0  0  0  0  0  0  0  0  0
    2.9488    1.9896   -0.0507 H   0  0  0  0  0  0  0  0  0  0  0  0
    0.5843    2.5771   -0.0626 H   0  0  0  0  0  0  0  0  0  0  0  0
   -2.0048    2.5072    0.8042 H   0  0  0  0  0  0  0  0  0  0  0  0
  1  2  2  0  0  0  0
  1 10  1  0  0  0  0
  1 11  1  0  0  0  0
  2  3  1  0  0  0  0
  2 12  1  0  0  0  0
  3  4  2  0  0  0  0
  3 13  1  0  0  0  0
  4  5  1  0  0  0  0
  4 14  1  0  0  0  0
  5  6  2  0  0  0  0
  5 10  1  0  0  0  0
  6  7  1  0  0  0  0
  6 15  1  0  0  0  0
  7  8  2  0  0  0  0
  7 16  1  0  0  0  0
  8  9  1  0  0  0  0
  8 17  1  0  0  0  0
  9 10  2  0  0  0  0
  9 18  1  0  0  0  0
 11 19  1  0  0  0  0
M  END
