C18H34O2
 OpenBabel01061903153D

 54 53  0  0  0  0  0  0  0  0999 V2000
    9.2285   -1.4206   -0.2145 C   0  0  0  0  0  0  0  0  0  0  0  0
    7.7979   -1.5769    0.2327 C   0  0  0  0  0  0  0  0  0  0  0  0
    7.0193   -0.3008   -0.0933 C   0  0  0  0  0  0  0  0  0  0  0  0
    5.5669   -0.4596    0.3607 C   0  0  0  0  0  0  0  0  0  0  0  0
    4.7882    0.8165    0.0347 C   0  0  0  0  0  0  0  0  0  0  0  0
    3.3358    0.6578    0.4887 C   0  0  0  0  0  0  0  0  0  0  0  0
    2.5572    1.9339    0.1627 C   0  0  0  0  0  0  0  0  0  0  0  0
    1.1048    1.7752    0.6167 C   0  0  0  0  0  0  0  0  0  0  0  0
    0.3379    3.0321    0.2956 C   0  0  0  0  0  0  0  0  0  0  0  0
   -0.7829    2.9612   -0.3788 C   0  0  0  0  0  0  0  0  0  0  0  0
   -1.3937    1.6183   -0.6864 C   0  0  0  0  0  0  0  0  0  0  0  0
   -2.8455    1.5958   -0.2041 C   0  0  0  0  0  0  0  0  0  0  0  0
   -3.4656    0.2324   -0.5163 C   0  0  0  0  0  0  0  0  0  0  0  0
   -4.9174    0.2099   -0.0341 C   0  0  0  0  0  0  0  0  0  0  0  0
   -5.5375   -1.1535   -0.3463 C   0  0  0  0  0  0  0  0  0  0  0  0
   -6.9893   -1.1760    0.1359 C   0  0  0  0  0  0  0  0  0  0  0  0
   -7.6094   -2.5394   -0.1763 C   0  0  0  0  0  0  0  0  0  0  0  0
   -9.0612   -2.5619    0.3060 C   0  0  0  0  0  0  0  0  0  0  0  0
    9.5884   -0.3939   -0.7401 O   0  0  0  0  0  0  0  0  0  0  0  0
   10.1042   -2.4198   -0.0240 O   0  0  0  0  0  0  0  0  0  0  0  0
    7.3451   -2.4215   -0.2866 H   0  0  0  0  0  0  0  0  0  0  0  0
    7.7706   -1.7545    1.3078 H   0  0  0  0  0  0  0  0  0  0  0  0
    7.4721    0.5438    0.4260 H   0  0  0  0  0  0  0  0  0  0  0  0
    7.0465   -0.1233   -1.1684 H   0  0  0  0  0  0  0  0  0  0  0  0
    5.1140   -1.3042   -0.1586 H   0  0  0  0  0  0  0  0  0  0  0  0
    5.5396   -0.6371    1.4358 H   0  0  0  0  0  0  0  0  0  0  0  0
    5.2410    1.6611    0.5540 H   0  0  0  0  0  0  0  0  0  0  0  0
    4.8155    0.9941   -1.0404 H   0  0  0  0  0  0  0  0  0  0  0  0
    2.8830   -0.1868   -0.0306 H   0  0  0  0  0  0  0  0  0  0  0  0
    3.3086    0.4803    1.5638 H   0  0  0  0  0  0  0  0  0  0  0  0
    3.0100    2.7785    0.6820 H   0  0  0  0  0  0  0  0  0  0  0  0
    2.5844    2.1114   -0.9124 H   0  0  0  0  0  0  0  0  0  0  0  0
    0.6520    0.9306    0.0974 H   0  0  0  0  0  0  0  0  0  0  0  0
    1.0775    1.5976    1.6918 H   0  0  0  0  0  0  0  0  0  0  0  0
    0.7123    3.9912    0.6214 H   0  0  0  0  0  0  0  0  0  0  0  0
   -1.2693    3.8652   -0.7145 H   0  0  0  0  0  0  0  0  0  0  0  0
   -1.3654    1.4439   -1.7620 H   0  0  0  0  0  0  0  0  0  0  0  0
   -0.8294    0.8372   -0.1767 H   0  0  0  0  0  0  0  0  0  0  0  0
   -2.8739    1.7701    0.8715 H   0  0  0  0  0  0  0  0  0  0  0  0
   -3.4098    2.3768   -0.7138 H   0  0  0  0  0  0  0  0  0  0  0  0
   -3.4372    0.0580   -1.5919 H   0  0  0  0  0  0  0  0  0  0  0  0
   -2.9013   -0.5487   -0.0067 H   0  0  0  0  0  0  0  0  0  0  0  0
   -4.9458    0.3842    1.0415 H   0  0  0  0  0  0  0  0  0  0  0  0
   -5.4817    0.9909   -0.5437 H   0  0  0  0  0  0  0  0  0  0  0  0
   -5.5091   -1.3279   -1.4219 H   0  0  0  0  0  0  0  0  0  0  0  0
   -4.9732   -1.9346    0.1633 H   0  0  0  0  0  0  0  0  0  0  0  0
   -7.0177   -1.0017    1.2115 H   0  0  0  0  0  0  0  0  0  0  0  0
   -7.5536   -0.3950   -0.3737 H   0  0  0  0  0  0  0  0  0  0  0  0
   -7.5810   -2.7138   -1.2519 H   0  0  0  0  0  0  0  0  0  0  0  0
   -7.0451   -3.3205    0.3334 H   0  0  0  0  0  0  0  0  0  0  0  0
   -9.0895   -2.3876    1.3816 H   0  0  0  0  0  0  0  0  0  0  0  0
   -9.6255   -1.7809   -0.2037 H   0  0  0  0  0  0  0  0  0  0  0  0
   -9.5030   -3.5333    0.0835 H   0  0  0  0  0  0  0  0  0  0  0  0
   11.0105   -2.2732   -0.3275 H   0  0  0  0  0  0  0  0  0  0  0  0
  1  2  1  0  0  0  0
  1 19  2  0  0  0  0
  1 20  1  0  0  0  0
  2  3  1  0  0  0  0
  2 21  1  0  0  0  0
  2 22  1  0  0  0  0
  3  4  1  0  0  0  0
  3 23  1  0  0  0  0
  3 24  1  0  0  0  0
  4  5  1  0  0  0  0
  4 25  1  0  0  0  0
  4 26  1  0  0  0  0
  5  6  1  0  0  0  0
  5 27  1  0  0  0  0
  5 28  1  0  0  0  0
  6  7  1  0  0  0  0
  6 29  1  0  0  0  0
  6 30  1  0  0  0  0
  7  8  1  0  0  0  0
  7 31  1  0  0  0  0
  7 32  1  0  0  0  0
  8  9  1  0  0  0  0
  8 33  1  0  0  0  0
  8 34  1  0  0  0  0
  9 10  2  0  0  0  0
  9 35  1  0  0  0  0
 10 11  1  0  0  0  0
 10 36  1  0  0  0  0
 11 12  1  0  0  0  0
 11 37  1  0  0  0  0
 11 38  1  0  0  0  0
 12 13  1  0  0  0  0
 12 39  1  0  0  0  0
 12 40  1  0  0  0  0
 13 14  1  0  0  0  0
 13 41  1  0  0  0  0
 13 42  1  0  0  0  0
 14 15  1  0  0  0  0
 14 43  1  0  0  0  0
 14 44  1  0  0  0  0
 15 16  1  0  0  0  0
 15 45  1  0  0  0  0
 15 46  1  0  0  0  0
 16 17  1  0  0  0  0
 16 47  1  0  0  0  0
 16 48  1  0  0  0  0
 17 18  1  0  0  0  0
 17 49  1  0  0  0  0
 17 50  1  0  0  0  0
 18 51  1  0  0  0  0
 18 52  1  0  0  0  0
 18 53  1  0  0  0  0
 20 54  1  0  0  0  0
M  END
