C2O4
 OpenBabel01061903163D

  6  5  0  0  0  0  0  0  0  0999 V2000
    0.7503   -0.0000   -0.0015 C   0  0  0  0  0  0  0  0  0  0  0  0
   -0.7503    0.0000   -0.0002 C   0  0  0  0  0  0  0  0  0  0  0  0
   -1.3602    1.0563    0.0016 O   0  0  0  0  0  0  0  0  0  0  0  0
   -1.3602   -1.0563   -0.0010 O   0  5  0  0  0  0  0  0  0  0  0  0
    1.3602    1.0563   -0.0007 O   0  0  0  0  0  0  0  0  0  0  0  0
    1.3602   -1.0563    0.0018 O   0  5  0  0  0  0  0  0  0  0  0  0
  1  2  1  0  0  0  0
  1  5  2  0  0  0  0
  1  6  1  0  0  0  0
  2  3  2  0  0  0  0
  2  4  1  0  0  0  0
M  CHG  2   4  -1   6  -1
M  END
