C2H2O4
 OpenBabel01061903163D

  8  7  0  0  0  0  0  0  0  0999 V2000
    0.7346    0.1363   -0.0020 C   0  0  0  0  0  0  0  0  0  0  0  0
   -0.7346   -0.1363   -0.0007 C   0  0  0  0  0  0  0  0  0  0  0  0
   -1.1392   -1.2793   -0.0015 O   0  0  0  0  0  0  0  0  0  0  0  0
   -1.6085    0.8867    0.0013 O   0  0  0  0  0  0  0  0  0  0  0  0
    1.1392    1.2793   -0.0012 O   0  0  0  0  0  0  0  0  0  0  0  0
    1.6085   -0.8867    0.0016 O   0  0  0  0  0  0  0  0  0  0  0  0
   -2.5488    0.6608    0.0020 H   0  0  0  0  0  0  0  0  0  0  0  0
    2.5488   -0.6608    0.0006 H   0  0  0  0  0  0  0  0  0  0  0  0
  1  2  1  0  0  0  0
  1  5  2  0  0  0  0
  1  6  1  0  0  0  0
  2  3  2  0  0  0  0
  2  4  1  0  0  0  0
  4  7  1  0  0  0  0
  6  8  1  0  0  0  0
M  END
