C22H28N2O11
 OpenBabel01061903163D

 63 64  0  0  0  0  0  0  0  0999 V2000
   -0.6793   -0.8409    0.9678 C   0  0  2  0  0  0  0  0  0  0  0  0
   -2.4040    1.0239    1.0754 C   0  0  2  0  0  0  0  0  0  0  0  0
   -1.6654   -0.0640    1.8220 C   0  0  2  0  0  0  0  0  0  0  0  0
    0.2458    0.1378    0.2272 C   0  0  2  0  0  0  0  0  0  0  0  0
   -1.4166   -1.6986   -0.0616 C   0  0  1  0  0  0  0  0  0  0  0  0
   -3.9040    0.7298    1.0668 C   0  0  2  0  0  0  0  0  0  0  0  0
   -5.8941    2.2138    0.7413 C   0  0  0  0  0  0  0  0  0  0  0  0
   -6.5711    3.2070    0.0514 C   0  0  0  0  0  0  0  0  0  0  0  0
   -6.0000    3.8072   -1.0541 C   0  0  0  0  0  0  0  0  0  0  0  0
   -4.4155    0.6603    2.5071 C   0  0  0  0  0  0  0  0  0  0  0  0
   -3.2527   -3.2585   -0.3024 C   0  0  0  0  0  0  0  0  0  0  0  0
   -1.5106   -3.6811    1.3253 C   0  0  0  0  0  0  0  0  0  0  0  0
   -1.5120    1.0491    3.5068 H   0  0  0  0  0  0  0  0  0  0  0  0
    1.4884    1.6582    0.7227 H   0  0  0  0  0  0  0  0  0  0  0  0
   -5.0697   -0.7760    0.3776 H   0  0  0  0  0  0  0  0  0  0  0  0
   -2.4950    1.6858   -3.1086 H   0  0  0  0  0  0  0  0  0  0  0  0
    0.9879   -4.4679   -1.7047 H   0  0  0  0  0  0  0  0  0  0  0  0
    1.9358   -4.2392   -3.0729 H   0  0  0  0  0  0  0  0  0  0  0  0
   -4.3727    3.5647   -3.4012 H   0  0  0  0  0  0  0  0  0  0  0  0
    3.8001   -2.6782   -2.1587 H   0  0  0  0  0  0  0  0  0  0  0  0
   -4.7373    3.4227   -1.4803 C   0  0  0  0  0  0  0  0  0  0  0  0
   -0.2503    1.1651   -1.8614 O   0  0  0  0  0  0  0  0  0  0  0  0
    2.3779   -0.2259   -0.7257 O   0  0  0  0  0  0  0  0  0  0  0  0
   -0.7027   -3.5278   -1.3702 O   0  0  0  0  0  0  0  0  0  0  0  0
   -0.9548    0.5320    2.9091 O   0  0  0  0  0  0  0  0  0  0  0  0
    0.8942    1.0220    1.1437 O   0  0  0  0  0  0  0  0  0  0  0  0
   -4.1373   -0.5231    0.4203 O   0  0  0  0  0  0  0  0  0  0  0  0
   -2.2364    2.3184   -2.4246 O   0  0  0  0  0  0  0  0  0  0  0  0
   -4.1740    4.0097   -2.5660 O   0  0  0  0  0  0  0  0  0  0  0  0
    3.0323   -2.0906   -2.1421 O   0  0  0  0  0  0  0  0  0  0  0  0
    1.8461   -2.6448   -1.8369 C   0  0  0  0  0  0  0  0  0  0  0  0
   -0.6347    0.9062   -0.7373 C   0  0  0  0  0  0  0  0  0  0  0  0
    1.2571   -0.6624   -0.5579 C   0  0  0  0  0  0  0  0  0  0  0  0
   -0.4064   -2.4533   -0.8880 C   0  0  0  0  0  0  0  0  0  0  0  0
   -2.6969    2.0135   -1.1918 C   0  0  0  0  0  0  0  0  0  0  0  0
    0.9016   -1.9174   -1.0966 C   0  0  0  0  0  0  0  0  0  0  0  0
   -4.6412    1.8164    0.3301 C   0  0  0  0  0  0  0  0  0  0  0  0
   -4.0474    2.4239   -0.7797 C   0  0  0  0  0  0  0  0  0  0  0  0
    1.5633   -3.9023   -2.2430 N   0  0  0  0  0  0  0  0  0  0  0  0
   -2.2948   -2.6510    0.6310 N   0  0  0  0  0  0  0  0  0  0  0  0
   14.5101    2.0878    0.1138 H   0  0  0  0  0  0  0  0  0  0  0  0
   15.7549    1.0569   -0.0218 H   0  0  0  0  0  0  0  0  0  0  0  0
   -1.9027    1.3102   -0.3013 C   0  0  0  0  0  0  0  0  0  0  0  0
   24.3665    3.5834    0.0149 H   0  0  0  0  0  0  0  0  0  0  0  0
   25.6113    2.5524   -0.1207 H   0  0  0  0  0  0  0  0  0  0  0  0
   24.7476    2.7335    0.2747 O   0  0  0  0  0  0  0  0  0  0  0  0
   14.8912    1.2379    0.3736 O   0  0  0  0  0  0  0  0  0  0  0  0
   -0.0808   -1.4900    1.6070 H   0  0  0  0  0  0  0  0  0  0  0  0
   -2.2703    1.9429    1.6461 H   0  0  0  0  0  0  0  0  0  0  0  0
   -2.3976   -0.7618    2.2283 H   0  0  0  0  0  0  0  0  0  0  0  0
   -2.0137   -1.0573   -0.7099 H   0  0  0  0  0  0  0  0  0  0  0  0
   -3.8883   -0.1295    3.0422 H   0  0  0  0  0  0  0  0  0  0  0  0
   -4.2384    1.6152    3.0020 H   0  0  0  0  0  0  0  0  0  0  0  0
   -5.4841    0.4458    2.5032 H   0  0  0  0  0  0  0  0  0  0  0  0
   -6.3500    1.7505    1.6037 H   0  0  0  0  0  0  0  0  0  0  0  0
   -2.7231   -3.9226   -0.9855 H   0  0  0  0  0  0  0  0  0  0  0  0
   -3.9937   -3.8291    0.2576 H   0  0  0  0  0  0  0  0  0  0  0  0
   -3.7521   -2.4747   -0.8719 H   0  0  0  0  0  0  0  0  0  0  0  0
   -0.8593   -3.2081    2.0602 H   0  0  0  0  0  0  0  0  0  0  0  0
   -2.1853   -4.3729    1.8295 H   0  0  0  0  0  0  0  0  0  0  0  0
   -0.9055   -4.2266    0.6012 H   0  0  0  0  0  0  0  0  0  0  0  0
   -7.5529    3.5139    0.3805 H   0  0  0  0  0  0  0  0  0  0  0  0
   -6.5381    4.5766   -1.5880 H   0  0  0  0  0  0  0  0  0  0  0  0
  1  3  1  0  0  0  0
  1  4  1  0  0  0  0
  1  5  1  0  0  0  0
  1 48  1  1  0  0  0
  2  3  1  0  0  0  0
  2  6  1  0  0  0  0
  2 43  1  0  0  0  0
  2 49  1  1  0  0  0
  3 25  1  0  0  0  0
  3 50  1  1  0  0  0
  4 26  1  1  0  0  0
  4 32  1  0  0  0  0
  4 33  1  0  0  0  0
  5 40  1  0  0  0  0
  5 34  1  0  0  0  0
  5 51  1  6  0  0  0
  6 27  1  6  0  0  0
  6 37  1  0  0  0  0
  6 10  1  0  0  0  0
  7 37  1  0  0  0  0
  7  8  2  0  0  0  0
  7 55  1  0  0  0  0
  8  9  1  0  0  0  0
  8 62  1  0  0  0  0
  9 21  2  0  0  0  0
  9 63  1  0  0  0  0
 10 52  1  0  0  0  0
 10 53  1  0  0  0  0
 10 54  1  0  0  0  0
 11 40  1  0  0  0  0
 11 56  1  0  0  0  0
 11 57  1  0  0  0  0
 11 58  1  0  0  0  0
 12 40  1  0  0  0  0
 12 59  1  0  0  0  0
 12 60  1  0  0  0  0
 12 61  1  0  0  0  0
 13 25  1  0  0  0  0
 14 26  1  0  0  0  0
 15 27  1  0  0  0  0
 16 28  1  0  0  0  0
 17 39  1  0  0  0  0
 18 39  1  0  0  0  0
 19 29  1  0  0  0  0
 20 30  1  0  0  0  0
 21 29  1  0  0  0  0
 21 38  1  0  0  0  0
 22 32  2  0  0  0  0
 23 33  2  0  0  0  0
 24 34  2  0  0  0  0
 28 35  1  0  0  0  0
 30 31  1  0  0  0  0
 31 39  1  0  0  0  0
 31 36  2  0  0  0  0
 32 43  1  0  0  0  0
 33 36  1  0  0  0  0
 34 36  1  0  0  0  0
 35 43  2  0  0  0  0
 35 38  1  0  0  0  0
 37 38  2  0  0  0  0
 41 47  1  0  0  0  0
 42 47  1  0  0  0  0
 44 46  1  0  0  0  0
 45 46  1  0  0  0  0
M  END
