O3
 OpenBabel01061903163D

  3  2  0  0  0  0  0  0  0  0999 V2000
   -0.9464    0.1933    0.0000 O   0  0  0  0  0  0  0  0  0  0  0  0
   -0.0000   -0.3866   -0.0000 O   0  3  0  0  0  0  0  0  0  0  0  0
    0.9464    0.1933    0.0000 O   0  5  0  0  0  0  0  0  0  0  0  0
  1  2  2  0  0  0  0
  2  3  1  0  0  0  0
M  CHG  2   2   1   3  -1
M  END
