C6H4O2
 OpenBabel01061902153D

 12 12  0  0  0  0  0  0  0  0999 V2000
   -1.4086   -0.0000    0.0016 C   0  0  0  0  0  0  0  0  0  0  0  0
   -0.6701   -1.2792    0.0007 C   0  0  0  0  0  0  0  0  0  0  0  0
    0.6701   -1.2792   -0.0002 C   0  0  0  0  0  0  0  0  0  0  0  0
    1.4086    0.0000   -0.0008 C   0  0  0  0  0  0  0  0  0  0  0  0
    0.6701    1.2792   -0.0009 C   0  0  0  0  0  0  0  0  0  0  0  0
   -0.6701    1.2792    0.0015 C   0  0  0  0  0  0  0  0  0  0  0  0
    2.6230    0.0000   -0.0009 O   0  0  0  0  0  0  0  0  0  0  0  0
   -2.6230    0.0000   -0.0026 O   0  0  0  0  0  0  0  0  0  0  0  0
   -1.2101   -2.2145    0.0012 H   0  0  0  0  0  0  0  0  0  0  0  0
    1.2101   -2.2145   -0.0002 H   0  0  0  0  0  0  0  0  0  0  0  0
    1.2101    2.2145   -0.0007 H   0  0  0  0  0  0  0  0  0  0  0  0
   -1.2101    2.2145    0.0011 H   0  0  0  0  0  0  0  0  0  0  0  0
  1  2  1  0  0  0  0
  1  6  1  0  0  0  0
  1  8  2  0  0  0  0
  2  3  2  0  0  0  0
  2  9  1  0  0  0  0
  3  4  1  0  0  0  0
  3 10  1  0  0  0  0
  4  5  1  0  0  0  0
  4  7  2  0  0  0  0
  5  6  2  0  0  0  0
  5 11  1  0  0  0  0
  6 12  1  0  0  0  0
M  END
