C7H6O3
 OpenBabel01061902573D

 16 16  0  0  0  0  0  0  0  0999 V2000
    3.2706    0.0098   -0.0717 O   0  0  0  0  0  0  0  0  0  0  0  0
    1.9139    0.0376   -0.0647 C   0  0  0  0  0  0  0  0  0  0  0  0
    1.2457    1.2566   -0.0617 C   0  0  0  0  0  0  0  0  0  0  0  0
   -0.1307    1.2893   -0.0542 C   0  0  0  0  0  0  0  0  0  0  0  0
   -0.8563    0.0944   -0.0499 C   0  0  0  0  0  0  0  0  0  0  0  0
   -2.3306    0.1247   -0.0423 C   0  0  0  0  0  0  0  0  0  0  0  0
   -2.9164    1.1892   -0.0397 O   0  0  0  0  0  0  0  0  0  0  0  0
   -3.0281   -1.0282   -0.0382 O   0  0  0  0  0  0  0  0  0  0  0  0
   -0.1803   -1.1292   -0.0534 C   0  0  0  0  0  0  0  0  0  0  0  0
    1.1962   -1.1529   -0.0662 C   0  0  0  0  0  0  0  0  0  0  0  0
    3.6684    0.0021    0.8097 H   0  0  0  0  0  0  0  0  0  0  0  0
    1.8070    2.1793   -0.0650 H   0  0  0  0  0  0  0  0  0  0  0  0
   -0.6491    2.2368   -0.0512 H   0  0  0  0  0  0  0  0  0  0  0  0
   -3.9925   -0.9578   -0.0333 H   0  0  0  0  0  0  0  0  0  0  0  0
   -0.7371   -2.0546   -0.0501 H   0  0  0  0  0  0  0  0  0  0  0  0
    1.7193   -2.0978   -0.0688 H   0  0  0  0  0  0  0  0  0  0  0  0
  1  2  1  0  0  0  0
  1 11  1  0  0  0  0
  2  3  2  0  0  0  0
  2 10  1  0  0  0  0
  3  4  1  0  0  0  0
  3 12  1  0  0  0  0
  4  5  2  0  0  0  0
  4 13  1  0  0  0  0
  5  6  1  0  0  0  0
  5  9  1  0  0  0  0
  6  7  2  0  0  0  0
  6  8  1  0  0  0  0
  8 14  1  0  0  0  0
  9 10  2  0  0  0  0
  9 15  1  0  0  0  0
 10 16  1  0  0  0  0
M  END
