C8H10
 OpenBabel01061904093D

 18 18  0  0  0  0  0  0  0  0999 V2000
   -1.3823    0.0000    0.0029 C   0  0  0  0  0  0  0  0  0  0  0  0
   -0.6912   -1.1972    0.0019 C   0  0  0  0  0  0  0  0  0  0  0  0
    0.6912   -1.1972    0.0007 C   0  0  0  0  0  0  0  0  0  0  0  0
    1.3823    0.0000   -0.0000 C   0  0  0  0  0  0  0  0  0  0  0  0
    0.6912    1.1972   -0.0000 C   0  0  0  0  0  0  0  0  0  0  0  0
   -0.6912    1.1972    0.0027 C   0  0  0  0  0  0  0  0  0  0  0  0
    2.8893    0.0000   -0.0003 C   0  0  0  0  0  0  0  0  0  0  0  0
   -2.8893    0.0000   -0.0021 C   0  0  0  0  0  0  0  0  0  0  0  0
   -1.2312   -2.1325    0.0025 H   0  0  0  0  0  0  0  0  0  0  0  0
    1.2312   -2.1325    0.0007 H   0  0  0  0  0  0  0  0  0  0  0  0
    1.2312    2.1325    0.0002 H   0  0  0  0  0  0  0  0  0  0  0  0
   -1.2312    2.1325    0.0024 H   0  0  0  0  0  0  0  0  0  0  0  0
    3.2525   -0.0005   -1.0281 H   0  0  0  0  0  0  0  0  0  0  0  0
    3.2528    0.8902    0.5130 H   0  0  0  0  0  0  0  0  0  0  0  0
    3.2528   -0.8897    0.5138 H   0  0  0  0  0  0  0  0  0  0  0  0
   -3.2561   -0.0028    1.0243 H   0  0  0  0  0  0  0  0  0  0  0  0
   -3.2510    0.8914   -0.5147 H   0  0  0  0  0  0  0  0  0  0  0  0
   -3.2510   -0.8886   -0.5196 H   0  0  0  0  0  0  0  0  0  0  0  0
  1  2  2  0  0  0  0
  1  6  1  0  0  0  0
  1  8  1  0  0  0  0
  2  3  1  0  0  0  0
  2  9  1  0  0  0  0
  3  4  2  0  0  0  0
  3 10  1  0  0  0  0
  4  5  1  0  0  0  0
  4  7  1  0  0  0  0
  5  6  2  0  0  0  0
  5 11  1  0  0  0  0
  6 12  1  0  0  0  0
  7 13  1  0  0  0  0
  7 14  1  0  0  0  0
  7 15  1  0  0  0  0
  8 16  1  0  0  0  0
  8 17  1  0  0  0  0
  8 18  1  0  0  0  0
M  END
