C28H35N3O5
 OpenBabel01061903163D

 71 77  0  0  0  0  0  0  0  0999 V2000
    3.8890    0.3510    0.0863 C   0  0  1  0  0  0  0  0  0  0  0  0
   -0.2657   -1.5187    0.0464 C   0  0  2  0  0  0  0  0  0  0  0  0
    1.8647   -0.8321   -0.8377 C   0  0  1  0  0  0  0  0  0  0  0  0
    2.9732    1.3308   -0.5131 N   0  0  2  0  0  0  0  0  0  0  0  0
    2.0708   -1.2335    0.6188 C   0  0  1  0  0  0  0  0  0  0  0  0
    5.0139    1.2357    0.6072 C   0  0  1  0  0  0  0  0  0  0  0  0
   -1.4579    0.7764   -0.4260 C   0  0  0  0  0  0  0  0  0  0  0  0
   -2.6688    1.4452   -0.2925 C   0  0  0  0  0  0  0  0  0  0  0  0
    3.1392   -2.1379   -2.6974 C   0  0  0  0  0  0  0  0  0  0  0  0
    0.3013   -0.0110    1.9858 C   0  0  0  0  0  0  0  0  0  0  0  0
    0.6028   -2.4686    2.2079 C   0  0  0  0  0  0  0  0  0  0  0  0
    5.9309    1.7101   -0.5219 C   0  0  0  0  0  0  0  0  0  0  0  0
   -7.2314    2.0709   -0.0683 C   0  0  0  0  0  0  0  0  0  0  0  0
   -5.6869    1.5188   -1.9277 C   0  0  0  0  0  0  0  0  0  0  0  0
   -2.8836   -3.2108    0.9424 H   0  0  0  0  0  0  0  0  0  0  0  0
    6.4885    1.1060    1.9846 H   0  0  0  0  0  0  0  0  0  0  0  0
    5.3518   -0.9850   -1.3123 O   0  0  0  0  0  0  0  0  0  0  0  0
   -0.5483   -3.9379   -0.0132 O   0  0  0  0  0  0  0  0  0  0  0  0
    0.5713   -1.5291   -1.2326 C   0  0  0  0  0  0  0  0  0  0  0  0
    2.8762    2.3956    0.4944 C   0  0  0  0  0  0  0  0  0  0  0  0
    4.2425    2.4331    1.1817 C   0  0  0  0  0  0  0  0  0  0  0  0
    5.7627    0.5772    1.6259 O   0  0  0  0  0  0  0  0  0  0  0  0
   -0.9994   -2.8351    0.2075 C   0  0  0  0  0  0  0  0  0  0  0  0
   -2.5424   -1.2120    0.4319 C   0  0  0  0  0  0  0  0  0  0  0  0
   -1.3946   -0.5400   -0.0176 C   0  0  0  0  0  0  0  0  0  0  0  0
   -3.7438   -0.5273    0.5735 C   0  0  0  0  0  0  0  0  0  0  0  0
   -3.7947    0.8101    0.2155 C   0  0  0  0  0  0  0  0  0  0  0  0
   -4.9455    1.5116    0.3538 O   0  0  0  0  0  0  0  0  0  0  0  0
   -4.8689   -1.1284    1.0335 O   0  0  0  0  0  0  0  0  0  0  0  0
   -6.4881   -0.2429   -0.4206 C   0  0  0  0  0  0  0  0  0  0  0  0
   -5.9547   -1.2132    0.2449 C   0  0  0  0  0  0  0  0  0  0  0  0
    1.7250    0.6867   -0.9399 C   0  0  0  0  0  0  0  0  0  0  0  0
    3.1517   -0.3538    1.2325 C   0  0  0  0  0  0  0  0  0  0  0  0
    0.6786   -1.2817    1.2264 C   0  0  0  0  0  0  0  0  0  0  0  0
   -6.0489    1.1877   -0.4779 C   0  0  0  0  0  0  0  0  0  0  0  0
   -2.2588   -2.5576    0.5969 N   0  0  0  0  0  0  0  0  0  0  0  0
    4.2277   -0.6659   -0.9826 C   0  0  0  0  0  0  0  0  0  0  0  0
    3.1045   -1.2363   -1.5462 N   0  0  0  0  0  0  0  0  0  0  0  0
    2.4685   -2.2738    0.6229 H   0  0  0  0  0  0  0  0  0  0  0  0
    0.7524   -2.5616   -1.5538 H   0  0  0  0  0  0  0  0  0  0  0  0
    0.0587   -0.9859   -2.0348 H   0  0  0  0  0  0  0  0  0  0  0  0
    1.5154    0.9656   -1.9743 H   0  0  0  0  0  0  0  0  0  0  0  0
    0.9235    1.0384   -0.2984 H   0  0  0  0  0  0  0  0  0  0  0  0
    3.8654   -0.9918    1.7667 H   0  0  0  0  0  0  0  0  0  0  0  0
    2.7593    0.3820    1.9176 H   0  0  0  0  0  0  0  0  0  0  0  0
   -0.6114    1.2801   -0.8673 H   0  0  0  0  0  0  0  0  0  0  0  0
    2.6633    3.3557    0.0121 H   0  0  0  0  0  0  0  0  0  0  0  0
    2.0868    2.1716    1.2170 H   0  0  0  0  0  0  0  0  0  0  0  0
   -7.3536   -0.4973   -1.0162 H   0  0  0  0  0  0  0  0  0  0  0  0
    4.1344    2.3273    2.2615 H   0  0  0  0  0  0  0  0  0  0  0  0
    4.7643    3.3624    0.9481 H   0  0  0  0  0  0  0  0  0  0  0  0
   -6.4187   -2.1835    0.1556 H   0  0  0  0  0  0  0  0  0  0  0  0
   -2.7327    2.4813   -0.5914 H   0  0  0  0  0  0  0  0  0  0  0  0
    4.1712   -2.2752   -3.0203 H   0  0  0  0  0  0  0  0  0  0  0  0
    2.7150   -3.1020   -2.4168 H   0  0  0  0  0  0  0  0  0  0  0  0
    2.5573   -1.7084   -3.5129 H   0  0  0  0  0  0  0  0  0  0  0  0
   -0.7063   -0.1140    2.3884 H   0  0  0  0  0  0  0  0  0  0  0  0
    1.0049    0.1462    2.8034 H   0  0  0  0  0  0  0  0  0  0  0  0
    0.3362    0.8416    1.3075 H   0  0  0  0  0  0  0  0  0  0  0  0
    0.8689   -3.3884    1.6870 H   0  0  0  0  0  0  0  0  0  0  0  0
    1.2972   -2.3037    3.0318 H   0  0  0  0  0  0  0  0  0  0  0  0
   -0.4113   -2.5527    2.5987 H   0  0  0  0  0  0  0  0  0  0  0  0
    5.3505    2.2836   -1.2446 H   0  0  0  0  0  0  0  0  0  0  0  0
    6.7202    2.3384   -0.1092 H   0  0  0  0  0  0  0  0  0  0  0  0
    6.3753    0.8462   -1.0162 H   0  0  0  0  0  0  0  0  0  0  0  0
   -6.9624    3.1197   -0.1941 H   0  0  0  0  0  0  0  0  0  0  0  0
   -8.0924    1.8390   -0.6953 H   0  0  0  0  0  0  0  0  0  0  0  0
   -7.4811    1.8825    0.9759 H   0  0  0  0  0  0  0  0  0  0  0  0
   -4.8154    0.9364   -2.2266 H   0  0  0  0  0  0  0  0  0  0  0  0
   -6.5275    1.2741   -2.5770 H   0  0  0  0  0  0  0  0  0  0  0  0
   -5.4600    2.5815   -2.0119 H   0  0  0  0  0  0  0  0  0  0  0  0
  1 37  1  6  0  0  0
  1  4  1  0  0  0  0
  1 33  1  0  0  0  0
  1  6  1  0  0  0  0
  2 34  1  1  0  0  0
  2 23  1  0  0  0  0
  2 25  1  0  0  0  0
  2 19  1  0  0  0  0
  3 32  1  6  0  0  0
  3 19  1  0  0  0  0
  3 38  1  0  0  0  0
  3  5  1  0  0  0  0
  4 32  1  1  0  0  0
  4 20  1  0  0  0  0
  5 34  1  0  0  0  0
  5 33  1  0  0  0  0
  5 39  1  6  0  0  0
  6 21  1  0  0  0  0
  6 22  1  1  0  0  0
  6 12  1  0  0  0  0
  7 25  2  0  0  0  0
  7  8  1  0  0  0  0
  7 46  1  0  0  0  0
  8 27  2  0  0  0  0
  8 53  1  0  0  0  0
  9 38  1  0  0  0  0
  9 54  1  0  0  0  0
  9 55  1  0  0  0  0
  9 56  1  0  0  0  0
 10 34  1  0  0  0  0
 10 57  1  0  0  0  0
 10 58  1  0  0  0  0
 10 59  1  0  0  0  0
 11 34  1  0  0  0  0
 11 60  1  0  0  0  0
 11 61  1  0  0  0  0
 11 62  1  0  0  0  0
 12 63  1  0  0  0  0
 12 64  1  0  0  0  0
 12 65  1  0  0  0  0
 13 35  1  0  0  0  0
 13 66  1  0  0  0  0
 13 67  1  0  0  0  0
 13 68  1  0  0  0  0
 14 35  1  0  0  0  0
 14 69  1  0  0  0  0
 14 70  1  0  0  0  0
 14 71  1  0  0  0  0
 15 36  1  0  0  0  0
 16 22  1  0  0  0  0
 17 37  2  0  0  0  0
 18 23  2  0  0  0  0
 19 40  1  0  0  0  0
 19 41  1  0  0  0  0
 20 21  1  0  0  0  0
 20 47  1  0  0  0  0
 20 48  1  0  0  0  0
 21 50  1  0  0  0  0
 21 51  1  0  0  0  0
 23 36  1  0  0  0  0
 24 25  1  0  0  0  0
 24 26  2  0  0  0  0
 24 36  1  0  0  0  0
 26 29  1  0  0  0  0
 26 27  1  0  0  0  0
 27 28  1  0  0  0  0
 28 35  1  0  0  0  0
 29 31  1  0  0  0  0
 30 31  2  0  0  0  0
 30 35  1  0  0  0  0
 30 49  1  0  0  0  0
 31 52  1  0  0  0  0
 32 42  1  0  0  0  0
 32 43  1  0  0  0  0
 33 44  1  0  0  0  0
 33 45  1  0  0  0  0
 37 38  1  0  0  0  0
M  END
