C16H18N2NaO4S
 OpenBabel01061903173D

 42 43  0  0  0  0  0  0  0  0999 V2000
   15.5247    4.5051    0.2447 Na  0  0  0  0  0  0  0  0  0  0  0  0
    4.4224   -0.6317   -0.0592 C   0  0  0  0  0  0  0  0  0  0  0  0
    3.7466   -2.9201    0.1394 C   0  0  0  0  0  0  0  0  0  0  0  0
    5.6718   -1.0380   -0.4891 C   0  0  0  0  0  0  0  0  0  0  0  0
    4.9960   -3.3264   -0.2905 C   0  0  0  0  0  0  0  0  0  0  0  0
    5.9585   -2.3854   -0.6050 C   0  0  0  0  0  0  0  0  0  0  0  0
    2.0977   -1.1298    0.7236 C   0  0  0  0  0  0  0  0  0  0  0  0
   -3.7150    1.1093    2.3502 C   0  0  0  0  0  0  0  0  0  0  0  0
   -5.2539    0.4509    0.4608 C   0  0  0  0  0  0  0  0  0  0  0  0
   -0.4226   -0.3953    0.6076 H   0  0  0  0  0  0  0  0  0  0  0  0
    3.4597   -1.5727    0.2549 C   0  0  0  0  0  0  0  0  0  0  0  0
   -4.4903    2.7931   -1.4760 O   0  0  0  0  0  0  0  0  0  0  0  0
   -0.7769    1.9546   -2.1787 O   0  0  0  0  0  0  0  0  0  0  0  0
    1.6027   -1.1833   -1.5833 O   0  0  0  0  0  0  0  0  0  0  0  0
   -4.1053    3.7607    0.4731 O   0  0  0  0  0  0  0  0  0  0  0  0
   -3.9318    2.7605   -0.4050 C   0  0  0  0  0  0  0  0  0  0  0  0
    1.1868   -0.9636   -0.4654 C   0  0  0  0  0  0  0  0  0  0  0  0
   -3.0404    1.5968   -0.0552 C   0  0  1  0  0  0  0  0  0  0  0  0
   -0.9755   -0.4095   -1.4424 C   0  0  1  0  0  0  0  0  0  0  0  0
   -1.3860    1.0124   -1.7180 C   0  0  0  0  0  0  0  0  0  0  0  0
   -4.6863    4.4854    0.2039 H   0  0  0  0  0  0  0  0  0  0  0  0
   -0.0900   -0.5710   -0.2865 N   0  0  0  0  0  0  0  0  0  0  0  0
   -2.4591   -0.5575   -1.1251 C   0  0  1  0  0  0  0  0  0  0  0  0
   -3.7993    0.6348    0.8981 C   0  0  0  0  0  0  0  0  0  0  0  0
   -2.8203   -0.9044    0.6382 S   0  0  0  0  0  0  0  0  0  0  0  0
   -2.6603    0.8894   -1.2813 N   0  0  0  0  0  0  0  0  0  0  0  0
   -2.1436    1.9652    0.4428 H   0  0  0  0  0  0  0  0  0  0  0  0
   -3.0220   -1.1789   -1.8216 H   0  0  0  0  0  0  0  0  0  0  0  0
   -4.1582    2.1016    2.4345 H   0  0  0  0  0  0  0  0  0  0  0  0
   -4.2564    0.4140    2.9917 H   0  0  0  0  0  0  0  0  0  0  0  0
   -2.6705    1.1505    2.6590 H   0  0  0  0  0  0  0  0  0  0  0  0
   -5.2807    0.0336   -0.5458 H   0  0  0  0  0  0  0  0  0  0  0  0
   -5.7571   -0.2282    1.1491 H   0  0  0  0  0  0  0  0  0  0  0  0
   -5.7602    1.4161    0.4676 H   0  0  0  0  0  0  0  0  0  0  0  0
   -0.6456   -0.9618   -2.3223 H   0  0  0  0  0  0  0  0  0  0  0  0
    1.6833   -1.8803    1.3967 H   0  0  0  0  0  0  0  0  0  0  0  0
    2.1858   -0.1791    1.2494 H   0  0  0  0  0  0  0  0  0  0  0  0
    4.1999    0.4208    0.0357 H   0  0  0  0  0  0  0  0  0  0  0  0
    2.9944   -3.6552    0.3848 H   0  0  0  0  0  0  0  0  0  0  0  0
    6.4238   -0.3028   -0.7348 H   0  0  0  0  0  0  0  0  0  0  0  0
    5.2202   -4.3790   -0.3803 H   0  0  0  0  0  0  0  0  0  0  0  0
    6.9344   -2.7028   -0.9416 H   0  0  0  0  0  0  0  0  0  0  0  0
  2 11  2  0  0  0  0
  2  4  1  0  0  0  0
  2 38  1  0  0  0  0
  3 11  1  0  0  0  0
  3  5  2  0  0  0  0
  3 39  1  0  0  0  0
  4  6  2  0  0  0  0
  4 40  1  0  0  0  0
  5  6  1  0  0  0  0
  5 41  1  0  0  0  0
  6 42  1  0  0  0  0
  7 17  1  0  0  0  0
  7 11  1  0  0  0  0
  7 36  1  0  0  0  0
  7 37  1  0  0  0  0
  8 24  1  0  0  0  0
  8 29  1  0  0  0  0
  8 30  1  0  0  0  0
  8 31  1  0  0  0  0
  9 24  1  0  0  0  0
  9 32  1  0  0  0  0
  9 33  1  0  0  0  0
  9 34  1  0  0  0  0
 10 22  1  0  0  0  0
 12 16  2  0  0  0  0
 13 20  2  0  0  0  0
 14 17  2  0  0  0  0
 15 16  1  0  0  0  0
 15 21  1  0  0  0  0
 16 18  1  0  0  0  0
 17 22  1  0  0  0  0
 18 26  1  0  0  0  0
 18 24  1  0  0  0  0
 18 27  1  1  0  0  0
 19 23  1  0  0  0  0
 19 20  1  0  0  0  0
 19 22  1  0  0  0  0
 19 35  1  6  0  0  0
 20 26  1  0  0  0  0
 23 26  1  0  0  0  0
 23 25  1  0  0  0  0
 23 28  1  6  0  0  0
 24 25  1  0  0  0  0
M  RAD  1   1   2
M  END
