C5H16N4O16
 OpenBabel01061903193D

 41 36  0  0  0  0  0  0  0  0999 V2000
  -34.1445    0.1887    0.0162 N   0  3  0  0  0  0  0  0  0  0  0  0
  -35.1369   -0.3232    0.5029 O   0  0  0  0  0  0  0  0  0  0  0  0
  -33.0911   -0.6262   -0.4647 O   0  0  0  0  0  0  0  0  0  0  0  0
  -34.0605    1.4013   -0.0613 O   0  5  0  0  0  0  0  0  0  0  0  0
  -22.5640    0.2111    0.0340 N   0  3  0  0  0  0  0  0  0  0  0  0
  -23.5564   -0.3007    0.5207 O   0  0  0  0  0  0  0  0  0  0  0  0
  -21.5106   -0.6037   -0.4469 O   0  0  0  0  0  0  0  0  0  0  0  0
  -22.4800    1.4238   -0.0435 O   0  5  0  0  0  0  0  0  0  0  0  0
  -10.9835    0.2336    0.0518 N   0  3  0  0  0  0  0  0  0  0  0  0
  -11.9758   -0.2782    0.5384 O   0  0  0  0  0  0  0  0  0  0  0  0
   -9.9301   -0.5812   -0.4291 O   0  0  0  0  0  0  0  0  0  0  0  0
  -10.8995    1.4463   -0.0258 O   0  5  0  0  0  0  0  0  0  0  0  0
    0.5970    0.2561    0.0696 N   0  3  0  0  0  0  0  0  0  0  0  0
   -0.3953   -0.2557    0.5562 O   0  0  0  0  0  0  0  0  0  0  0  0
    1.6505   -0.5587   -0.4114 O   0  0  0  0  0  0  0  0  0  0  0  0
    0.6810    1.4688   -0.0080 O   0  5  0  0  0  0  0  0  0  0  0  0
   17.2267    1.9024   -0.7628 O   0  0  0  0  0  0  0  0  0  0  0  0
   16.1591    1.0316   -1.1423 C   0  0  0  0  0  0  0  0  0  0  0  0
   15.7769    0.1458    0.0452 C   0  0  0  0  0  0  0  0  0  0  0  0
   14.6338   -0.7865   -0.3612 C   0  0  0  0  0  0  0  0  0  0  0  0
   14.2769   -1.6139    0.7479 O   0  0  0  0  0  0  0  0  0  0  0  0
   16.9877   -0.6872    0.4706 C   0  0  0  0  0  0  0  0  0  0  0  0
   17.4080   -1.5086   -0.6207 O   0  0  0  0  0  0  0  0  0  0  0  0
   15.3270    1.0252    1.2135 C   0  0  0  0  0  0  0  0  0  0  0  0
   14.1961    1.8032    0.8162 O   0  0  0  0  0  0  0  0  0  0  0  0
  -33.2501   -1.5747   -0.3640 H   0  0  0  0  0  0  0  0  0  0  0  0
  -21.6696   -1.5522   -0.3462 H   0  0  0  0  0  0  0  0  0  0  0  0
  -10.0891   -1.5297   -0.3284 H   0  0  0  0  0  0  0  0  0  0  0  0
    1.4914   -1.5072   -0.3106 H   0  0  0  0  0  0  0  0  0  0  0  0
   17.5213    2.4943   -1.4685 H   0  0  0  0  0  0  0  0  0  0  0  0
   15.2965    1.6251   -1.4454 H   0  0  0  0  0  0  0  0  0  0  0  0
   16.4797    0.4051   -1.9746 H   0  0  0  0  0  0  0  0  0  0  0  0
   13.7712   -0.1931   -0.6643 H   0  0  0  0  0  0  0  0  0  0  0  0
   14.9544   -1.4130   -1.1935 H   0  0  0  0  0  0  0  0  0  0  0  0
   13.5566   -2.2318    0.5619 H   0  0  0  0  0  0  0  0  0  0  0  0
   17.8021   -0.0230    0.7601 H   0  0  0  0  0  0  0  0  0  0  0  0
   16.7154   -1.3184    1.3165 H   0  0  0  0  0  0  0  0  0  0  0  0
   18.1733   -2.0653   -0.4220 H   0  0  0  0  0  0  0  0  0  0  0  0
   15.0547    0.3940    2.0595 H   0  0  0  0  0  0  0  0  0  0  0  0
   16.1413    1.6894    1.5030 H   0  0  0  0  0  0  0  0  0  0  0  0
   13.8564    2.3858    1.5092 H   0  0  0  0  0  0  0  0  0  0  0  0
  1  2  2  0  0  0  0
  1  3  1  0  0  0  0
  1  4  1  0  0  0  0
  3 26  1  0  0  0  0
  5  6  2  0  0  0  0
  5  7  1  0  0  0  0
  5  8  1  0  0  0  0
  7 27  1  0  0  0  0
  9 10  2  0  0  0  0
  9 11  1  0  0  0  0
  9 12  1  0  0  0  0
 11 28  1  0  0  0  0
 13 14  2  0  0  0  0
 13 15  1  0  0  0  0
 13 16  1  0  0  0  0
 15 29  1  0  0  0  0
 17 18  1  0  0  0  0
 17 30  1  0  0  0  0
 18 19  1  0  0  0  0
 18 31  1  0  0  0  0
 18 32  1  0  0  0  0
 19 20  1  0  0  0  0
 19 22  1  0  0  0  0
 19 24  1  0  0  0  0
 20 21  1  0  0  0  0
 20 33  1  0  0  0  0
 20 34  1  0  0  0  0
 21 35  1  0  0  0  0
 22 23  1  0  0  0  0
 22 36  1  0  0  0  0
 22 37  1  0  0  0  0
 23 38  1  0  0  0  0
 24 25  1  0  0  0  0
 24 39  1  0  0  0  0
 24 40  1  0  0  0  0
 25 41  1  0  0  0  0
M  CHG  8   1   1   4  -1   5   1   8  -1   9   1  12  -1  13   1  16  -1
M  END
