C20H14O4
 OpenBabel01061903213D

 38 41  0  0  0  0  0  0  0  0999 V2000
    0.0013    1.7075    1.5638 C   0  0  0  0  0  0  0  0  0  0  0  0
    1.7341   -1.2975   -1.4529 C   0  0  0  0  0  0  0  0  0  0  0  0
    1.7799   -0.5444    0.8214 C   0  0  0  0  0  0  0  0  0  0  0  0
   -1.8305   -1.2313   -1.4589 C   0  0  0  0  0  0  0  0  0  0  0  0
   -1.8556   -0.4776    0.8155 C   0  0  0  0  0  0  0  0  0  0  0  0
    0.0466    3.9261   -0.1064 C   0  0  0  0  0  0  0  0  0  0  0  0
    0.0243    2.9850    2.0981 C   0  0  0  0  0  0  0  0  0  0  0  0
    2.8516   -2.0757   -1.2205 C   0  0  0  0  0  0  0  0  0  0  0  0
    2.8976   -1.3209    1.0589 C   0  0  0  0  0  0  0  0  0  0  0  0
   -2.9764   -1.9682   -1.2302 C   0  0  0  0  0  0  0  0  0  0  0  0
   -3.0016   -1.2128    1.0493 C   0  0  0  0  0  0  0  0  0  0  0  0
    0.0468    4.0887    1.2634 C   0  0  0  0  0  0  0  0  0  0  0  0
    5.3732   -2.4004    0.1011 H   0  0  0  0  0  0  0  0  0  0  0  0
   -4.5263   -3.5881    0.5544 H   0  0  0  0  0  0  0  0  0  0  0  0
    1.1987   -0.5326   -0.4331 C   0  0  0  0  0  0  0  0  0  0  0  0
   -1.2706   -0.4868   -0.4373 C   0  0  0  0  0  0  0  0  0  0  0  0
    3.4367   -2.0892    0.0373 C   0  0  0  0  0  0  0  0  0  0  0  0
   -3.5654   -1.9607    0.0258 C   0  0  0  0  0  0  0  0  0  0  0  0
    0.0322    2.8555   -3.0299 O   0  0  0  0  0  0  0  0  0  0  0  0
    4.5359   -2.8542    0.2685 O   0  0  0  0  0  0  0  0  0  0  0  0
   -4.6930   -2.6844    0.2532 O   0  0  0  0  0  0  0  0  0  0  0  0
    0.0172    2.1488   -2.0421 C   0  0  0  0  0  0  0  0  0  0  0  0
    0.0009    1.5338    0.1994 C   0  0  0  0  0  0  0  0  0  0  0  0
    0.0236    2.6413   -0.6525 C   0  0  0  0  0  0  0  0  0  0  0  0
   -0.0081    0.8057   -2.0582 O   0  0  0  0  0  0  0  0  0  0  0  0
   -0.0202    0.3157   -0.6894 C   0  0  1  0  0  0  0  0  0  0  0  0
   -0.0118    0.8483    2.2180 H   0  0  0  0  0  0  0  0  0  0  0  0
    1.2809   -1.2832   -2.4331 H   0  0  0  0  0  0  0  0  0  0  0  0
    1.3596    0.0536    1.6165 H   0  0  0  0  0  0  0  0  0  0  0  0
   -1.3692   -1.2404   -2.4354 H   0  0  0  0  0  0  0  0  0  0  0  0
   -1.4165    0.1050    1.6118 H   0  0  0  0  0  0  0  0  0  0  0  0
    0.0646    4.7899   -0.7544 H   0  0  0  0  0  0  0  0  0  0  0  0
    0.0242    3.1204    3.1695 H   0  0  0  0  0  0  0  0  0  0  0  0
    3.2693   -2.6732   -2.0174 H   0  0  0  0  0  0  0  0  0  0  0  0
    3.3514   -1.3295    2.0388 H   0  0  0  0  0  0  0  0  0  0  0  0
   -3.4136   -2.5493   -2.0287 H   0  0  0  0  0  0  0  0  0  0  0  0
   -3.4580   -1.2056    2.0281 H   0  0  0  0  0  0  0  0  0  0  0  0
    0.0650    5.0822    1.6866 H   0  0  0  0  0  0  0  0  0  0  0  0
  1 23  1  0  0  0  0
  1  7  2  0  0  0  0
  1 27  1  0  0  0  0
  2 15  2  0  0  0  0
  2  8  1  0  0  0  0
  2 28  1  0  0  0  0
  3 15  1  0  0  0  0
  3  9  2  0  0  0  0
  3 29  1  0  0  0  0
  4 16  1  0  0  0  0
  4 10  2  0  0  0  0
  4 30  1  0  0  0  0
  5 16  2  0  0  0  0
  5 11  1  0  0  0  0
  5 31  1  0  0  0  0
  6 24  1  0  0  0  0
  6 12  2  0  0  0  0
  6 32  1  0  0  0  0
  7 12  1  0  0  0  0
  7 33  1  0  0  0  0
  8 17  2  0  0  0  0
  8 34  1  0  0  0  0
  9 17  1  0  0  0  0
  9 35  1  0  0  0  0
 10 18  1  0  0  0  0
 10 36  1  0  0  0  0
 11 18  2  0  0  0  0
 11 37  1  0  0  0  0
 12 38  1  0  0  0  0
 13 20  1  0  0  0  0
 14 21  1  0  0  0  0
 16 26  1  0  0  0  0
 17 20  1  0  0  0  0
 18 21  1  0  0  0  0
 19 22  2  0  0  0  0
 22 25  1  0  0  0  0
 22 24  1  0  0  0  0
 23 26  1  0  0  0  0
 23 24  2  0  0  0  0
 25 26  1  0  0  0  0
 26 15  1  1  0  0  0
M  END
