C9H11NO2
 OpenBabel01061903213D

 23 23  0  0  0  0  0  0  0  0999 V2000
   -1.3708    1.4309   -0.8120 N   0  0  0  0  0  0  0  0  0  0  0  0
   -1.5860    0.0367   -0.4021 C   0  0  1  0  0  0  0  0  0  0  0  0
   -1.3158   -0.6288   -1.2219 H   0  0  0  0  0  0  0  0  0  0  0  0
   -0.7162   -0.2765    0.8170 C   0  0  0  0  0  0  0  0  0  0  0  0
    0.7382   -0.1944    0.4309 C   0  0  0  0  0  0  0  0  0  0  0  0
    1.4167    1.0046    0.5440 C   0  0  0  0  0  0  0  0  0  0  0  0
    2.7508    1.0800    0.1898 C   0  0  0  0  0  0  0  0  0  0  0  0
    3.4064   -0.0439   -0.2771 C   0  0  0  0  0  0  0  0  0  0  0  0
    2.7281   -1.2431   -0.3894 C   0  0  0  0  0  0  0  0  0  0  0  0
    1.3952   -1.3195   -0.0310 C   0  0  0  0  0  0  0  0  0  0  0  0
   -3.0371   -0.1648   -0.0490 C   0  0  0  0  0  0  0  0  0  0  0  0
   -3.7306    0.7867    0.2225 O   0  0  0  0  0  0  0  0  0  0  0  0
   -3.5593   -1.4013   -0.0361 O   0  0  0  0  0  0  0  0  0  0  0  0
   -1.8850    1.6438   -1.6536 H   0  0  0  0  0  0  0  0  0  0  0  0
   -1.6144    2.0681   -0.0685 H   0  0  0  0  0  0  0  0  0  0  0  0
   -0.9238    0.4457    1.6067 H   0  0  0  0  0  0  0  0  0  0  0  0
   -0.9409   -1.2811    1.1752 H   0  0  0  0  0  0  0  0  0  0  0  0
    0.9044    1.8827    0.9088 H   0  0  0  0  0  0  0  0  0  0  0  0
    3.2807    2.0169    0.2775 H   0  0  0  0  0  0  0  0  0  0  0  0
    4.4485    0.0151   -0.5545 H   0  0  0  0  0  0  0  0  0  0  0  0
    3.2403   -2.1211   -0.7544 H   0  0  0  0  0  0  0  0  0  0  0  0
    0.8653   -2.2564   -0.1187 H   0  0  0  0  0  0  0  0  0  0  0  0
   -4.4945   -1.4805    0.1965 H   0  0  0  0  0  0  0  0  0  0  0  0
  1  2  1  0  0  0  0
  1 14  1  0  0  0  0
  1 15  1  0  0  0  0
  2  3  1  6  0  0  0
  2  4  1  0  0  0  0
  2 11  1  0  0  0  0
  4  5  1  0  0  0  0
  4 16  1  0  0  0  0
  4 17  1  0  0  0  0
  5  6  2  0  0  0  0
  5 10  1  0  0  0  0
  6  7  1  0  0  0  0
  6 18  1  0  0  0  0
  7  8  2  0  0  0  0
  7 19  1  0  0  0  0
  8  9  1  0  0  0  0
  8 20  1  0  0  0  0
  9 10  2  0  0  0  0
  9 21  1  0  0  0  0
 10 22  1  0  0  0  0
 11 12  2  0  0  0  0
 11 13  1  0  0  0  0
 13 23  1  0  0  0  0
M  END
