C8H8HgO2
 OpenBabel01061903213D

 19 19  0  0  0  0  0  0  0  0999 V2000
    2.1338    1.3254   -0.0002 C   0  0  0  0  0  0  0  0  0  0  0  0
    1.7531   -1.0384    0.0001 C   0  0  0  0  0  0  0  0  0  0  0  0
    3.4985    1.1056   -0.0003 C   0  0  0  0  0  0  0  0  0  0  0  0
    3.1178   -1.2582   -0.0000 C   0  0  0  0  0  0  0  0  0  0  0  0
    3.9906   -0.1862   -0.0004 C   0  0  0  0  0  0  0  0  0  0  0  0
   -5.0276   -0.0251   -0.0002 C   0  0  0  0  0  0  0  0  0  0  0  0
    1.2610    0.2534   -0.0003 C   0  0  0  0  0  0  0  0  0  0  0  0
   -3.0407   -1.2916   -0.0003 O   0  0  0  0  0  0  0  0  0  0  0  0
   -3.5292   -0.1865   -0.0002 C   0  0  0  0  0  0  0  0  0  0  0  0
   -2.7375    0.8973   -0.0001 O   0  0  0  0  0  0  0  0  0  0  0  0
   -0.8123    0.5873   -0.0002 Hg  0  0  0  0  0  0  0  0  0  0  0  0
    1.7493    2.3347    0.0044 H   0  0  0  0  0  0  0  0  0  0  0  0
    1.0712   -1.8760   -0.0000 H   0  0  0  0  0  0  0  0  0  0  0  0
    4.1804    1.9431   -0.0007 H   0  0  0  0  0  0  0  0  0  0  0  0
    3.5022   -2.2675    0.0006 H   0  0  0  0  0  0  0  0  0  0  0  0
    5.0568   -0.3580   -0.0012 H   0  0  0  0  0  0  0  0  0  0  0  0
   -5.3338    0.5248   -0.8901 H   0  0  0  0  0  0  0  0  0  0  0  0
   -5.4989   -1.0079   -0.0002 H   0  0  0  0  0  0  0  0  0  0  0  0
   -5.3338    0.5246    0.8899 H   0  0  0  0  0  0  0  0  0  0  0  0
  1  7  1  0  0  0  0
  1  3  2  0  0  0  0
  1 12  1  0  0  0  0
  2  7  2  0  0  0  0
  2  4  1  0  0  0  0
  2 13  1  0  0  0  0
  3  5  1  0  0  0  0
  3 14  1  0  0  0  0
  4  5  2  0  0  0  0
  4 15  1  0  0  0  0
  5 16  1  0  0  0  0
  6  9  1  0  0  0  0
  6 17  1  0  0  0  0
  6 18  1  0  0  0  0
  6 19  1  0  0  0  0
  7 11  1  0  0  0  0
  8  9  2  0  0  0  0
  9 10  1  0  0  0  0
 10 11  1  0  0  0  0
M  END
