C16H17N2O5S
 OpenBabel01061903213D

 41 43  0  0  0  0  0  0  0  0999 V2000
   -1.2588   -1.7697    0.8837 C   0  0  1  0  0  0  0  0  0  0  0  0
   -2.4758   -1.0511    1.4733 C   0  0  1  0  0  0  0  0  0  0  0  0
   -3.5184   -0.1478   -0.5869 C   0  0  1  0  0  0  0  0  0  0  0  0
    4.5399    0.8917   -0.4267 C   0  0  0  0  0  0  0  0  0  0  0  0
    5.6928    1.5913   -0.7266 C   0  0  0  0  0  0  0  0  0  0  0  0
    6.9156    0.9458   -0.7216 C   0  0  0  0  0  0  0  0  0  0  0  0
    6.9878   -0.4008   -0.4165 C   0  0  0  0  0  0  0  0  0  0  0  0
    5.8379   -1.1049   -0.1159 C   0  0  0  0  0  0  0  0  0  0  0  0
    2.2483   -0.4209    0.1517 C   0  0  0  0  0  0  0  0  0  0  0  0
   -3.4723    2.3906   -0.4244 C   0  0  0  0  0  0  0  0  0  0  0  0
   -5.0464    1.0698    1.0424 C   0  0  0  0  0  0  0  0  0  0  0  0
   -0.3276    0.0611    0.3458 H   0  0  0  0  0  0  0  0  0  0  0  0
    4.6098   -0.4596   -0.1203 C   0  0  0  0  0  0  0  0  0  0  0  0
   -2.0187   -2.8009   -1.2796 O   0  0  0  0  0  0  0  0  0  0  0  0
   -5.2059    0.3984   -2.1518 O   0  0  0  0  0  0  0  0  0  0  0  0
    1.3292   -2.5111    0.7486 O   0  0  0  0  0  0  0  0  0  0  0  0
   -4.8113   -0.3999   -1.3190 C   0  0  0  0  0  0  0  0  0  0  0  0
    1.1098   -1.3439    0.5025 C   0  0  0  0  0  0  0  0  0  0  0  0
    3.4771   -1.1499    0.1755 O   0  0  0  0  0  0  0  0  0  0  0  0
   -2.1517   -2.1104   -0.2914 C   0  0  0  0  0  0  0  0  0  0  0  0
   -0.1521   -0.8724    0.5427 N   0  0  0  0  0  0  0  0  0  0  0  0
   -5.4626   -1.4021   -1.0785 O   0  5  0  0  0  0  0  0  0  0  0  0
   -3.6866    1.0834    0.3413 C   0  0  0  0  0  0  0  0  0  0  0  0
   -2.3157    0.7723    1.5323 S   0  0  0  0  0  0  0  0  0  0  0  0
   -3.1665   -1.3351    0.1976 N   0  0  0  0  0  0  0  0  0  0  0  0
   -0.9397   -2.6377    1.4606 H   0  0  0  0  0  0  0  0  0  0  0  0
   -2.8977   -1.5000    2.3725 H   0  0  0  0  0  0  0  0  0  0  0  0
   -4.2015    2.4627   -1.2314 H   0  0  0  0  0  0  0  0  0  0  0  0
   -3.5972    3.2341    0.2546 H   0  0  0  0  0  0  0  0  0  0  0  0
   -2.4655    2.4062   -0.8420 H   0  0  0  0  0  0  0  0  0  0  0  0
    3.5856    1.3973   -0.4264 H   0  0  0  0  0  0  0  0  0  0  0  0
    5.6389    2.6431   -0.9655 H   0  0  0  0  0  0  0  0  0  0  0  0
    7.8157    1.4944   -0.9566 H   0  0  0  0  0  0  0  0  0  0  0  0
    7.9441   -0.9028   -0.4136 H   0  0  0  0  0  0  0  0  0  0  0  0
    5.8949   -2.1567    0.1223 H   0  0  0  0  0  0  0  0  0  0  0  0
   -5.1351    0.1664    1.6457 H   0  0  0  0  0  0  0  0  0  0  0  0
   -5.1325    1.9459    1.6852 H   0  0  0  0  0  0  0  0  0  0  0  0
   -5.8403    1.0876    0.2958 H   0  0  0  0  0  0  0  0  0  0  0  0
   -2.7289    0.0523   -1.3113 H   0  0  0  0  0  0  0  0  0  0  0  0
    2.0889   -0.0099   -0.8452 H   0  0  0  0  0  0  0  0  0  0  0  0
    2.2938    0.3917    0.8767 H   0  0  0  0  0  0  0  0  0  0  0  0
  1  2  1  0  0  0  0
  1 21  1  0  0  0  0
  1 26  1  1  0  0  0
  1 20  1  0  0  0  0
  2 24  1  0  0  0  0
  2 25  1  0  0  0  0
  2 27  1  1  0  0  0
  3 25  1  0  0  0  0
  3 23  1  0  0  0  0
  3 17  1  0  0  0  0
  3 39  1  6  0  0  0
  4 13  1  0  0  0  0
  4  5  2  0  0  0  0
  4 31  1  0  0  0  0
  5  6  1  0  0  0  0
  5 32  1  0  0  0  0
  6  7  2  0  0  0  0
  6 33  1  0  0  0  0
  7  8  1  0  0  0  0
  7 34  1  0  0  0  0
  8 13  2  0  0  0  0
  8 35  1  0  0  0  0
  9 18  1  0  0  0  0
  9 19  1  0  0  0  0
  9 40  1  0  0  0  0
  9 41  1  0  0  0  0
 10 23  1  0  0  0  0
 10 28  1  0  0  0  0
 10 29  1  0  0  0  0
 10 30  1  0  0  0  0
 11 23  1  0  0  0  0
 11 36  1  0  0  0  0
 11 37  1  0  0  0  0
 11 38  1  0  0  0  0
 12 21  1  0  0  0  0
 13 19  1  0  0  0  0
 14 20  2  0  0  0  0
 15 17  2  0  0  0  0
 16 18  2  0  0  0  0
 17 22  1  0  0  0  0
 18 21  1  0  0  0  0
 20 25  1  0  0  0  0
 23 24  1  0  0  0  0
M  CHG  1  22  -1
M  END
