C6H6O
 OpenBabel01061903213D

 13 13  0  0  0  0  0  0  0  0999 V2000
   -1.1212    0.0003   -0.0798 C   0  0  0  0  0  0  0  0  0  0  0  0
   -0.4265   -1.2005   -0.0719 C   0  0  0  0  0  0  0  0  0  0  0  0
    0.9548   -1.1979   -0.0563 C   0  0  0  0  0  0  0  0  0  0  0  0
    1.6450    0.0001   -0.0485 C   0  0  0  0  0  0  0  0  0  0  0  0
    0.9549    1.1982   -0.0560 C   0  0  0  0  0  0  0  0  0  0  0  0
   -0.4264    1.2010   -0.0720 C   0  0  0  0  0  0  0  0  0  0  0  0
   -2.4801    0.0003   -0.1008 O   0  0  0  0  0  0  0  0  0  0  0  0
   -0.9652   -2.1366   -0.0775 H   0  0  0  0  0  0  0  0  0  0  0  0
    1.4961   -2.1325   -0.0497 H   0  0  0  0  0  0  0  0  0  0  0  0
    2.7249    0.0001   -0.0363 H   0  0  0  0  0  0  0  0  0  0  0  0
    1.4963    2.1327   -0.0496 H   0  0  0  0  0  0  0  0  0  0  0  0
   -0.9650    2.1371   -0.0778 H   0  0  0  0  0  0  0  0  0  0  0  0
   -2.8870   -0.0017    0.7764 H   0  0  0  0  0  0  0  0  0  0  0  0
  1  2  2  0  0  0  0
  1  6  1  0  0  0  0
  1  7  1  0  0  0  0
  2  3  1  0  0  0  0
  2  8  1  0  0  0  0
  3  4  2  0  0  0  0
  3  9  1  0  0  0  0
  4  5  1  0  0  0  0
  4 10  1  0  0  0  0
  5  6  2  0  0  0  0
  5 11  1  0  0  0  0
  6 12  1  0  0  0  0
  7 13  1  0  0  0  0
M  END
