C6H6O3
 OpenBabel01061903213D

 15 15  0  0  0  0  0  0  0  0999 V2000
   -1.3872   -0.0393   -0.0315 C   0  0  0  0  0  0  0  0  0  0  0  0
   -2.7453   -0.0777   -0.0036 O   0  0  0  0  0  0  0  0  0  0  0  0
   -0.7282    1.1808   -0.0449 C   0  0  0  0  0  0  0  0  0  0  0  0
    0.6577    1.2201   -0.0734 C   0  0  0  0  0  0  0  0  0  0  0  0
    1.3034    2.4158   -0.0869 O   0  0  0  0  0  0  0  0  0  0  0  0
    1.3847    0.0393   -0.0877 C   0  0  0  0  0  0  0  0  0  0  0  0
    0.7257   -1.1809   -0.0739 C   0  0  0  0  0  0  0  0  0  0  0  0
    1.4381   -2.3380   -0.0883 O   0  0  0  0  0  0  0  0  0  0  0  0
   -0.6601   -1.2201   -0.0409 C   0  0  0  0  0  0  0  0  0  0  0  0
   -3.1565   -0.0887   -0.8788 H   0  0  0  0  0  0  0  0  0  0  0  0
   -1.2944    2.1005   -0.0334 H   0  0  0  0  0  0  0  0  0  0  0  0
    1.5085    2.7620    0.7924 H   0  0  0  0  0  0  0  0  0  0  0  0
    2.4640    0.0698   -0.1099 H   0  0  0  0  0  0  0  0  0  0  0  0
    1.6625   -2.6728    0.7907 H   0  0  0  0  0  0  0  0  0  0  0  0
   -1.1733   -2.1703   -0.0302 H   0  0  0  0  0  0  0  0  0  0  0  0
  1  2  1  0  0  0  0
  1  3  2  0  0  0  0
  1  9  1  0  0  0  0
  2 10  1  0  0  0  0
  3  4  1  0  0  0  0
  3 11  1  0  0  0  0
  4  5  1  0  0  0  0
  4  6  2  0  0  0  0
  5 12  1  0  0  0  0
  6  7  1  0  0  0  0
  6 13  1  0  0  0  0
  7  8  1  0  0  0  0
  7  9  2  0  0  0  0
  8 14  1  0  0  0  0
  9 15  1  0  0  0  0
M  END
