C6H10O5
 OpenBabel01061903223D

 21 19  0  0  0  0  0  0  0  0999 V2000
  -18.2259   -0.0160   -0.3746 O   0  0  0  0  0  0  0  0  0  0  0  0
   -8.2782   -0.2605    0.2411 O   0  0  0  0  0  0  0  0  0  0  0  0
    4.2506    0.8367    0.5204 C   0  0  0  0  0  0  0  0  0  0  0  0
    3.3300    1.7047    1.0161 O   0  0  0  0  0  0  0  0  0  0  0  0
    5.4090    1.3176   -0.0712 C   0  0  0  0  0  0  0  0  0  0  0  0
    6.3484    0.4318   -0.5772 C   0  0  0  0  0  0  0  0  0  0  0  0
    7.4833    0.9030   -1.1573 O   0  0  0  0  0  0  0  0  0  0  0  0
    6.1298   -0.9349   -0.4908 C   0  0  0  0  0  0  0  0  0  0  0  0
    4.9717   -1.4158    0.1013 C   0  0  0  0  0  0  0  0  0  0  0  0
    4.7573   -2.7551    0.1855 O   0  0  0  0  0  0  0  0  0  0  0  0
    4.0343   -0.5301    0.6112 C   0  0  0  0  0  0  0  0  0  0  0  0
  -18.4577    0.9151   -0.2540 H   0  0  0  0  0  0  0  0  0  0  0  0
  -17.3703   -0.1560   -0.8030 H   0  0  0  0  0  0  0  0  0  0  0  0
   -8.5101    0.6705    0.3617 H   0  0  0  0  0  0  0  0  0  0  0  0
   -7.4227   -0.4005   -0.1873 H   0  0  0  0  0  0  0  0  0  0  0  0
    2.6565    1.9720    0.3758 H   0  0  0  0  0  0  0  0  0  0  0  0
    5.5793    2.3819   -0.1383 H   0  0  0  0  0  0  0  0  0  0  0  0
    8.2190    1.0236   -0.5415 H   0  0  0  0  0  0  0  0  0  0  0  0
    6.8614   -1.6248   -0.8848 H   0  0  0  0  0  0  0  0  0  0  0  0
    5.1025   -3.1586    0.9937 H   0  0  0  0  0  0  0  0  0  0  0  0
    3.1323   -0.9046    1.0722 H   0  0  0  0  0  0  0  0  0  0  0  0
  1 12  1  0  0  0  0
  1 13  1  0  0  0  0
  2 14  1  0  0  0  0
  2 15  1  0  0  0  0
  3  4  1  0  0  0  0
  3  5  2  0  0  0  0
  3 11  1  0  0  0  0
  4 16  1  0  0  0  0
  5  6  1  0  0  0  0
  5 17  1  0  0  0  0
  6  7  1  0  0  0  0
  6  8  2  0  0  0  0
  7 18  1  0  0  0  0
  8  9  1  0  0  0  0
  8 19  1  0  0  0  0
  9 10  1  0  0  0  0
  9 11  2  0  0  0  0
 10 20  1  0  0  0  0
 11 21  1  0  0  0  0
M  END
