C53H80O2
 OpenBabel01061903443D

135135  0  0  0  0  0  0  0  0999 V2000
  -12.8488    1.5580   -0.9426 C   0  0  0  0  0  0  0  0  0  0  0  0
   -9.0179    1.4827   -0.7121 C   0  0  0  0  0  0  0  0  0  0  0  0
   -8.3702    1.2786   -2.0831 C   0  0  0  0  0  0  0  0  0  0  0  0
   -5.1201   -0.7535   -2.3120 C   0  0  0  0  0  0  0  0  0  0  0  0
   -4.9779   -1.6958   -1.1150 C   0  0  0  0  0  0  0  0  0  0  0  0
   -1.4732   -2.4077    0.2812 C   0  0  0  0  0  0  0  0  0  0  0  0
   -0.4757   -1.3220   -0.1276 C   0  0  0  0  0  0  0  0  0  0  0  0
    3.1768   -2.2873   -0.8046 C   0  0  0  0  0  0  0  0  0  0  0  0
    6.5252   -5.5556    0.1220 C   0  0  0  0  0  0  0  0  0  0  0  0
    9.2390   -2.8655    1.4564 C   0  0  0  0  0  0  0  0  0  0  0  0
    3.3338   -3.7855   -1.0723 C   0  0  0  0  0  0  0  0  0  0  0  0
    7.1809   -4.7866    1.2708 C   0  0  0  0  0  0  0  0  0  0  0  0
    9.1853   -2.3261    0.0257 C   0  0  0  0  0  0  0  0  0  0  0  0
    9.2588    1.4615   -0.5908 C   0  0  0  0  0  0  0  0  0  0  0  0
    9.8491    2.2248    0.5966 C   0  0  0  0  0  0  0  0  0  0  0  0
    8.4816    5.7099    1.4484 C   0  0  0  0  0  0  0  0  0  0  0  0
    7.0654    5.8997    0.9012 C   0  0  0  0  0  0  0  0  0  0  0  0
  -15.5695   -2.3087    1.1459 C   0  0  0  0  0  0  0  0  0  0  0  0
  -15.8857   -0.7950    3.5364 C   0  0  0  0  0  0  0  0  0  0  0  0
  -10.7321    3.4148   -1.0882 C   0  0  0  0  0  0  0  0  0  0  0  0
   -7.5428   -1.1791   -3.1852 C   0  0  0  0  0  0  0  0  0  0  0  0
   -3.5194   -1.0857    1.2185 C   0  0  0  0  0  0  0  0  0  0  0  0
    1.2205   -1.5528   -2.3687 C   0  0  0  0  0  0  0  0  0  0  0  0
    4.0190   -5.7535    0.8242 C   0  0  0  0  0  0  0  0  0  0  0  0
   11.0154   -4.7775    1.4120 C   0  0  0  0  0  0  0  0  0  0  0  0
   10.9829   -0.4420   -1.0570 C   0  0  0  0  0  0  0  0  0  0  0  0
    8.3916    3.4174    2.6931 C   0  0  0  0  0  0  0  0  0  0  0  0
    6.4703    7.1274   -1.5653 C   0  0  0  0  0  0  0  0  0  0  0  0
    6.0007    9.3773   -0.3283 C   0  0  0  0  0  0  0  0  0  0  0  0
  -14.0811   -1.0106   -0.9077 O   0  0  0  0  0  0  0  0  0  0  0  0
  -14.6623    1.7778    3.4978 O   0  0  0  0  0  0  0  0  0  0  0  0
  -10.4393    1.9495   -0.8925 C   0  0  0  0  0  0  0  0  0  0  0  0
   -6.5569   -0.3170   -2.4397 C   0  0  0  0  0  0  0  0  0  0  0  0
   -2.8778   -1.8875    0.1155 C   0  0  0  0  0  0  0  0  0  0  0  0
    1.7350   -1.8916   -0.9934 C   0  0  0  0  0  0  0  0  0  0  0  0
    5.0909   -5.1165   -0.0223 C   0  0  0  0  0  0  0  0  0  0  0  0
    9.5751   -4.3343    1.4272 C   0  0  0  0  0  0  0  0  0  0  0  0
    9.6565    0.0105   -0.5030 C   0  0  0  0  0  0  0  0  0  0  0  0
    8.8072    4.2395    1.5004 C   0  0  0  0  0  0  0  0  0  0  0  0
    6.4197    7.9302   -0.2910 C   0  0  0  0  0  0  0  0  0  0  0  0
  -14.2158   -0.3650    0.1120 C   0  0  0  0  0  0  0  0  0  0  0  0
  -14.9684   -0.9307    1.2502 C   0  0  0  0  0  0  0  0  0  0  0  0
  -13.6219    0.9834    0.2164 C   0  0  0  0  0  0  0  0  0  0  0  0
  -15.1171   -0.2183    2.3755 C   0  0  0  0  0  0  0  0  0  0  0  0
  -14.5276    1.1322    2.4780 C   0  0  0  0  0  0  0  0  0  0  0  0
  -11.4205    1.0816   -0.8791 C   0  0  0  0  0  0  0  0  0  0  0  0
   -6.9487    0.8118   -1.9027 C   0  0  0  0  0  0  0  0  0  0  0  0
   -3.5412   -2.1323   -0.9873 C   0  0  0  0  0  0  0  0  0  0  0  0
    0.9289   -1.8422    0.0381 C   0  0  0  0  0  0  0  0  0  0  0  0
    4.7757   -4.1811   -0.8835 C   0  0  0  0  0  0  0  0  0  0  0  0
    8.6153   -5.2257    1.4150 C   0  0  0  0  0  0  0  0  0  0  0  0
    8.8493   -0.8573    0.0549 C   0  0  0  0  0  0  0  0  0  0  0  0
    9.4514    3.6757    0.5088 C   0  0  0  0  0  0  0  0  0  0  0  0
    6.7399    7.3702    0.8491 C   0  0  0  0  0  0  0  0  0  0  0  0
  -13.7702    1.6956    1.3419 C   0  0  0  0  0  0  0  0  0  0  0  0
  -13.3359    2.6815    1.4182 H   0  0  0  0  0  0  0  0  0  0  0  0
  -13.3001    1.2296   -1.8788 H   0  0  0  0  0  0  0  0  0  0  0  0
  -12.8714    2.6465   -0.8904 H   0  0  0  0  0  0  0  0  0  0  0  0
  -15.3465   -2.7290    0.1652 H   0  0  0  0  0  0  0  0  0  0  0  0
  -15.1470   -2.9490    1.9202 H   0  0  0  0  0  0  0  0  0  0  0  0
  -16.6497   -2.2447    1.2766 H   0  0  0  0  0  0  0  0  0  0  0  0
  -15.2038   -1.3409    4.1884 H   0  0  0  0  0  0  0  0  0  0  0  0
  -16.3566    0.0123    4.0974 H   0  0  0  0  0  0  0  0  0  0  0  0
  -16.6527   -1.4735    3.1631 H   0  0  0  0  0  0  0  0  0  0  0  0
  -11.2057    0.0247   -0.8226 H   0  0  0  0  0  0  0  0  0  0  0  0
   -9.0116    0.5408   -0.1635 H   0  0  0  0  0  0  0  0  0  0  0  0
   -8.4574    2.2323   -0.1534 H   0  0  0  0  0  0  0  0  0  0  0  0
  -10.9358    3.8768   -0.1222 H   0  0  0  0  0  0  0  0  0  0  0  0
   -9.8707    3.8991   -1.5482 H   0  0  0  0  0  0  0  0  0  0  0  0
  -11.6015    3.5282   -1.7358 H   0  0  0  0  0  0  0  0  0  0  0  0
   -8.9307    0.5291   -2.6418 H   0  0  0  0  0  0  0  0  0  0  0  0
   -8.3764    2.2205   -2.6317 H   0  0  0  0  0  0  0  0  0  0  0  0
   -6.2531    1.4079   -1.3307 H   0  0  0  0  0  0  0  0  0  0  0  0
   -4.4866    0.1209   -2.1633 H   0  0  0  0  0  0  0  0  0  0  0  0
   -4.8158   -1.2723   -3.2210 H   0  0  0  0  0  0  0  0  0  0  0  0
   -7.5864   -0.8630   -4.2275 H   0  0  0  0  0  0  0  0  0  0  0  0
   -7.2258   -2.2207   -3.1344 H   0  0  0  0  0  0  0  0  0  0  0  0
   -8.5293   -1.0770   -2.7330 H   0  0  0  0  0  0  0  0  0  0  0  0
   -5.2822   -1.1770   -0.2060 H   0  0  0  0  0  0  0  0  0  0  0  0
   -5.6114   -2.5702   -1.2637 H   0  0  0  0  0  0  0  0  0  0  0  0
   -3.0584   -2.6469   -1.8049 H   0  0  0  0  0  0  0  0  0  0  0  0
   -1.3340   -3.2853   -0.3501 H   0  0  0  0  0  0  0  0  0  0  0  0
   -1.3071   -2.6799    1.3235 H   0  0  0  0  0  0  0  0  0  0  0  0
    1.2710   -2.1743    1.0071 H   0  0  0  0  0  0  0  0  0  0  0  0
   -0.6418   -1.0498   -1.1699 H   0  0  0  0  0  0  0  0  0  0  0  0
   -0.6149   -0.4444    0.5037 H   0  0  0  0  0  0  0  0  0  0  0  0
    3.4832   -2.0668    0.2180 H   0  0  0  0  0  0  0  0  0  0  0  0
    3.8015   -1.7265   -1.4999 H   0  0  0  0  0  0  0  0  0  0  0  0
    5.5491   -3.6934   -1.4583 H   0  0  0  0  0  0  0  0  0  0  0  0
    7.0623   -5.3525   -0.8045 H   0  0  0  0  0  0  0  0  0  0  0  0
    6.5585   -6.6242    0.3345 H   0  0  0  0  0  0  0  0  0  0  0  0
    8.8519   -6.2753    1.5084 H   0  0  0  0  0  0  0  0  0  0  0  0
   10.0034   -2.3290    2.0186 H   0  0  0  0  0  0  0  0  0  0  0  0
    8.2698   -2.7240    1.9347 H   0  0  0  0  0  0  0  0  0  0  0  0
    2.7092   -4.3462   -0.3770 H   0  0  0  0  0  0  0  0  0  0  0  0
    3.0275   -4.0059   -2.0949 H   0  0  0  0  0  0  0  0  0  0  0  0
    7.9429   -0.5202    0.5358 H   0  0  0  0  0  0  0  0  0  0  0  0
    7.1477   -3.7180    1.0583 H   0  0  0  0  0  0  0  0  0  0  0  0
    6.6438   -4.9897    2.1972 H   0  0  0  0  0  0  0  0  0  0  0  0
   10.1545   -2.4676   -0.4526 H   0  0  0  0  0  0  0  0  0  0  0  0
    8.4210   -2.8626   -0.5364 H   0  0  0  0  0  0  0  0  0  0  0  0
    8.1720    1.5421   -0.5705 H   0  0  0  0  0  0  0  0  0  0  0  0
    9.6374    1.8864   -1.5204 H   0  0  0  0  0  0  0  0  0  0  0  0
    9.4705    1.7999    1.5262 H   0  0  0  0  0  0  0  0  0  0  0  0
   10.9359    2.1442    0.5763 H   0  0  0  0  0  0  0  0  0  0  0  0
    9.6975    4.2508   -0.3717 H   0  0  0  0  0  0  0  0  0  0  0  0
   -4.1251   -1.7440    1.8412 H   0  0  0  0  0  0  0  0  0  0  0  0
   -2.7443   -0.6209    1.8279 H   0  0  0  0  0  0  0  0  0  0  0  0
   -4.1527   -0.3121    0.7842 H   0  0  0  0  0  0  0  0  0  0  0  0
    9.1937    6.2169    0.7972 H   0  0  0  0  0  0  0  0  0  0  0  0
    8.5429    6.1314    2.4517 H   0  0  0  0  0  0  0  0  0  0  0  0
    1.2825   -0.4758   -2.5247 H   0  0  0  0  0  0  0  0  0  0  0  0
    1.8242   -2.0640   -3.1186 H   0  0  0  0  0  0  0  0  0  0  0  0
    0.1825   -1.8736   -2.4575 H   0  0  0  0  0  0  0  0  0  0  0  0
    3.5829   -6.5949    0.2857 H   0  0  0  0  0  0  0  0  0  0  0  0
    4.4559   -6.1070    1.7582 H   0  0  0  0  0  0  0  0  0  0  0  0
    3.2431   -5.0193    1.0410 H   0  0  0  0  0  0  0  0  0  0  0  0
   11.3577   -4.8651    0.3809 H   0  0  0  0  0  0  0  0  0  0  0  0
   11.6270   -4.0436    1.9368 H   0  0  0  0  0  0  0  0  0  0  0  0
   11.1032   -5.7445    1.9073 H   0  0  0  0  0  0  0  0  0  0  0  0
   10.8463   -0.8058   -2.0753 H   0  0  0  0  0  0  0  0  0  0  0  0
   11.6800    0.3960   -1.0610 H   0  0  0  0  0  0  0  0  0  0  0  0
   11.3819   -1.2435   -0.4353 H   0  0  0  0  0  0  0  0  0  0  0  0
    7.0041    5.4783   -0.1022 H   0  0  0  0  0  0  0  0  0  0  0  0
    6.3534    5.3927    1.5523 H   0  0  0  0  0  0  0  0  0  0  0  0
    9.2276    3.3369    3.3880 H   0  0  0  0  0  0  0  0  0  0  0  0
    7.5503    3.8994    3.1912 H   0  0  0  0  0  0  0  0  0  0  0  0
    8.0964    2.4215    2.3630 H   0  0  0  0  0  0  0  0  0  0  0  0
    6.7705    7.9623    1.7518 H   0  0  0  0  0  0  0  0  0  0  0  0
    5.5382    6.5748   -1.6839 H   0  0  0  0  0  0  0  0  0  0  0  0
    6.6047    7.7993   -2.4130 H   0  0  0  0  0  0  0  0  0  0  0  0
    7.3045    6.4273   -1.5208 H   0  0  0  0  0  0  0  0  0  0  0  0
    6.8789   10.0062   -0.4747 H   0  0  0  0  0  0  0  0  0  0  0  0
    5.3017    9.5322   -1.1502 H   0  0  0  0  0  0  0  0  0  0  0  0
    5.5184    9.6403    0.6132 H   0  0  0  0  0  0  0  0  0  0  0  0
  1 43  1  0  0  0  0
  1 46  1  0  0  0  0
  1 57  1  0  0  0  0
  1 58  1  0  0  0  0
  2 32  1  0  0  0  0
  2  3  1  0  0  0  0
  2 66  1  0  0  0  0
  2 67  1  0  0  0  0
  3 47  1  0  0  0  0
  3 71  1  0  0  0  0
  3 72  1  0  0  0  0
  4 33  1  0  0  0  0
  4  5  1  0  0  0  0
  4 74  1  0  0  0  0
  4 75  1  0  0  0  0
  5 48  1  0  0  0  0
  5 79  1  0  0  0  0
  5 80  1  0  0  0  0
  6 34  1  0  0  0  0
  6  7  1  0  0  0  0
  6 82  1  0  0  0  0
  6 83  1  0  0  0  0
  7 49  1  0  0  0  0
  7 85  1  0  0  0  0
  7 86  1  0  0  0  0
  8 35  1  0  0  0  0
  8 11  1  0  0  0  0
  8 87  1  0  0  0  0
  8 88  1  0  0  0  0
  9 36  1  0  0  0  0
  9 12  1  0  0  0  0
  9 90  1  0  0  0  0
  9 91  1  0  0  0  0
 10 37  1  0  0  0  0
 10 13  1  0  0  0  0
 10 93  1  0  0  0  0
 10 94  1  0  0  0  0
 11 50  1  0  0  0  0
 11 95  1  0  0  0  0
 11 96  1  0  0  0  0
 12 51  1  0  0  0  0
 12 98  1  0  0  0  0
 12 99  1  0  0  0  0
 13 52  1  0  0  0  0
 13100  1  0  0  0  0
 13101  1  0  0  0  0
 14 38  1  0  0  0  0
 14 15  1  0  0  0  0
 14102  1  0  0  0  0
 14103  1  0  0  0  0
 15 53  1  0  0  0  0
 15104  1  0  0  0  0
 15105  1  0  0  0  0
 16 39  1  0  0  0  0
 16 17  1  0  0  0  0
 16110  1  0  0  0  0
 16111  1  0  0  0  0
 17 54  1  0  0  0  0
 17124  1  0  0  0  0
 17125  1  0  0  0  0
 18 42  1  0  0  0  0
 18 59  1  0  0  0  0
 18 60  1  0  0  0  0
 18 61  1  0  0  0  0
 19 44  1  0  0  0  0
 19 62  1  0  0  0  0
 19 63  1  0  0  0  0
 19 64  1  0  0  0  0
 20 32  1  0  0  0  0
 20 68  1  0  0  0  0
 20 69  1  0  0  0  0
 20 70  1  0  0  0  0
 21 33  1  0  0  0  0
 21 76  1  0  0  0  0
 21 77  1  0  0  0  0
 21 78  1  0  0  0  0
 22 34  1  0  0  0  0
 22107  1  0  0  0  0
 22108  1  0  0  0  0
 22109  1  0  0  0  0
 23 35  1  0  0  0  0
 23112  1  0  0  0  0
 23113  1  0  0  0  0
 23114  1  0  0  0  0
 24 36  1  0  0  0  0
 24115  1  0  0  0  0
 24116  1  0  0  0  0
 24117  1  0  0  0  0
 25 37  1  0  0  0  0
 25118  1  0  0  0  0
 25119  1  0  0  0  0
 25120  1  0  0  0  0
 26 38  1  0  0  0  0
 26121  1  0  0  0  0
 26122  1  0  0  0  0
 26123  1  0  0  0  0
 27 39  1  0  0  0  0
 27126  1  0  0  0  0
 27127  1  0  0  0  0
 27128  1  0  0  0  0
 28 40  1  0  0  0  0
 28130  1  0  0  0  0
 28131  1  0  0  0  0
 28132  1  0  0  0  0
 29 40  1  0  0  0  0
 29133  1  0  0  0  0
 29134  1  0  0  0  0
 29135  1  0  0  0  0
 30 41  2  0  0  0  0
 31 45  2  0  0  0  0
 32 46  2  0  0  0  0
 33 47  2  0  0  0  0
 34 48  2  0  0  0  0
 35 49  2  0  0  0  0
 36 50  2  0  0  0  0
 37 51  2  0  0  0  0
 38 52  2  0  0  0  0
 39 53  2  0  0  0  0
 40 54  2  0  0  0  0
 41 42  1  0  0  0  0
 41 43  1  0  0  0  0
 42 44  2  0  0  0  0
 43 55  2  0  0  0  0
 44 45  1  0  0  0  0
 45 55  1  0  0  0  0
 46 65  1  0  0  0  0
 47 73  1  0  0  0  0
 48 81  1  0  0  0  0
 49 84  1  0  0  0  0
 50 89  1  0  0  0  0
 51 92  1  0  0  0  0
 52 97  1  0  0  0  0
 53106  1  0  0  0  0
 54129  1  0  0  0  0
 55 56  1  0  0  0  0
M  END
