C21H30O2
 OpenBabel01061903443D

 53 56  0  0  0  0  0  0  0  0999 V2000
    0.9565    0.2104    0.4873 C   0  0  1  0  0  0  0  0  0  0  0  0
    0.1885   -1.0036   -0.0554 C   0  0  2  0  0  0  0  0  0  0  0  0
    2.2680    0.3713   -0.2916 C   0  0  1  0  0  0  0  0  0  0  0  0
   -1.1256   -1.0891    0.6997 C   0  0  1  0  0  0  0  0  0  0  0  0
   -1.9372    0.1880    0.3532 C   0  0  2  0  0  0  0  0  0  0  0  0
   -3.3409   -0.1427    0.8497 C   0  0  2  0  0  0  0  0  0  0  0  0
    1.9169    0.6888   -1.7466 C   0  0  0  0  0  0  0  0  0  0  0  0
   -1.9584    0.3937   -1.1627 C   0  0  0  0  0  0  0  0  0  0  0  0
   -4.8064    1.9439    0.2916 C   0  0  0  0  0  0  0  0  0  0  0  0
    6.1331    0.1800    0.9535 O   0  0  0  0  0  0  0  0  0  0  0  0
   -4.8538   -0.0551   -0.9538 O   0  0  0  0  0  0  0  0  0  0  0  0
    0.1428    1.4955    0.3682 C   0  0  0  0  0  0  0  0  0  0  0  0
    1.0120   -2.2700    0.1953 C   0  0  0  0  0  0  0  0  0  0  0  0
    3.0363    1.5586    0.2607 C   0  0  0  0  0  0  0  0  0  0  0  0
   -1.2400    1.3560    1.0242 C   0  0  0  0  0  0  0  0  0  0  0  0
   -2.0826   -2.1974    0.2467 C   0  0  0  0  0  0  0  0  0  0  0  0
    2.3050   -2.2006   -0.6203 C   0  0  0  0  0  0  0  0  0  0  0  0
    4.5048    1.5267   -0.1611 C   0  0  0  0  0  0  0  0  0  0  0  0
   -3.4656   -1.6821    0.7303 C   0  0  0  0  0  0  0  0  0  0  0  0
   -4.3734    0.5334   -0.0151 C   0  0  0  0  0  0  0  0  0  0  0  0
    5.0905    0.2188    0.3341 C   0  0  0  0  0  0  0  0  0  0  0  0
    4.3308   -0.9973    0.0244 C   0  0  0  0  0  0  0  0  0  0  0  0
    3.0336   -0.9161   -0.2691 C   0  0  0  0  0  0  0  0  0  0  0  0
    1.1873    0.0429    1.5393 H   0  0  0  0  0  0  0  0  0  0  0  0
   -0.0020   -0.8777   -1.1212 H   0  0  0  0  0  0  0  0  0  0  0  0
   -0.9430   -1.1452    1.7729 H   0  0  0  0  0  0  0  0  0  0  0  0
    0.6861    2.3064    0.8534 H   0  0  0  0  0  0  0  0  0  0  0  0
    0.0131    1.7376   -0.6866 H   0  0  0  0  0  0  0  0  0  0  0  0
    1.2539   -2.3430    1.2556 H   0  0  0  0  0  0  0  0  0  0  0  0
    0.4365   -3.1445   -0.1085 H   0  0  0  0  0  0  0  0  0  0  0  0
    2.5809    2.4785   -0.1060 H   0  0  0  0  0  0  0  0  0  0  0  0
    2.9786    1.5443    1.3491 H   0  0  0  0  0  0  0  0  0  0  0  0
    1.3387    1.6119   -1.7877 H   0  0  0  0  0  0  0  0  0  0  0  0
    2.8337    0.8083   -2.3238 H   0  0  0  0  0  0  0  0  0  0  0  0
    1.3281   -0.1277   -2.1647 H   0  0  0  0  0  0  0  0  0  0  0  0
   -1.8164    2.2688    0.8735 H   0  0  0  0  0  0  0  0  0  0  0  0
   -1.1272    1.1586    2.0902 H   0  0  0  0  0  0  0  0  0  0  0  0
   -2.0673   -2.3004   -0.8383 H   0  0  0  0  0  0  0  0  0  0  0  0
   -1.8333   -3.1429    0.7284 H   0  0  0  0  0  0  0  0  0  0  0  0
    2.9357   -3.0563   -0.3792 H   0  0  0  0  0  0  0  0  0  0  0  0
    2.0671   -2.2069   -1.6840 H   0  0  0  0  0  0  0  0  0  0  0  0
    4.8230   -1.9586    0.0340 H   0  0  0  0  0  0  0  0  0  0  0  0
    4.5794    1.5783   -1.2474 H   0  0  0  0  0  0  0  0  0  0  0  0
    5.0376    2.3648    0.2879 H   0  0  0  0  0  0  0  0  0  0  0  0
   -3.4571    0.1675    1.8882 H   0  0  0  0  0  0  0  0  0  0  0  0
   -2.4181   -0.4715   -1.6404 H   0  0  0  0  0  0  0  0  0  0  0  0
   -2.5342    1.2883   -1.3999 H   0  0  0  0  0  0  0  0  0  0  0  0
   -0.9381    0.5109   -1.5278 H   0  0  0  0  0  0  0  0  0  0  0  0
   -3.7072   -2.1144    1.7013 H   0  0  0  0  0  0  0  0  0  0  0  0
   -4.2359   -1.9398    0.0034 H   0  0  0  0  0  0  0  0  0  0  0  0
   -4.1651    2.6451   -0.2424 H   0  0  0  0  0  0  0  0  0  0  0  0
   -5.8401    2.0836   -0.0247 H   0  0  0  0  0  0  0  0  0  0  0  0
   -4.7271    2.1233    1.3639 H   0  0  0  0  0  0  0  0  0  0  0  0
  1  2  1  0  0  0  0
  1  3  1  0  0  0  0
  1 12  1  0  0  0  0
  1 24  1  1  0  0  0
  2  4  1  0  0  0  0
  2 13  1  0  0  0  0
  2 25  1  6  0  0  0
  3 23  1  0  0  0  0
  3 14  1  0  0  0  0
  3  7  1  6  0  0  0
  4  5  1  0  0  0  0
  4 16  1  0  0  0  0
  4 26  1  1  0  0  0
  5  6  1  0  0  0  0
  5  8  1  6  0  0  0
  5 15  1  0  0  0  0
  6 20  1  0  0  0  0
  6 19  1  0  0  0  0
  6 45  1  1  0  0  0
  7 33  1  0  0  0  0
  7 34  1  0  0  0  0
  7 35  1  0  0  0  0
  8 46  1  0  0  0  0
  8 47  1  0  0  0  0
  8 48  1  0  0  0  0
  9 20  1  0  0  0  0
  9 51  1  0  0  0  0
  9 52  1  0  0  0  0
  9 53  1  0  0  0  0
 10 21  2  0  0  0  0
 11 20  2  0  0  0  0
 12 15  1  0  0  0  0
 12 27  1  0  0  0  0
 12 28  1  0  0  0  0
 13 17  1  0  0  0  0
 13 29  1  0  0  0  0
 13 30  1  0  0  0  0
 14 18  1  0  0  0  0
 14 31  1  0  0  0  0
 14 32  1  0  0  0  0
 15 36  1  0  0  0  0
 15 37  1  0  0  0  0
 16 19  1  0  0  0  0
 16 38  1  0  0  0  0
 16 39  1  0  0  0  0
 17 23  1  0  0  0  0
 17 40  1  0  0  0  0
 17 41  1  0  0  0  0
 18 21  1  0  0  0  0
 18 43  1  0  0  0  0
 18 44  1  0  0  0  0
 19 49  1  0  0  0  0
 19 50  1  0  0  0  0
 21 22  1  0  0  0  0
 22 23  2  0  0  0  0
 22 42  1  0  0  0  0
M  END
