C5H9NO2
 OpenBabel01061903453D

 17 17  0  0  0  0  0  0  0  0999 V2000
    0.2595    1.2762   -0.1894 N   0  0  0  0  0  0  0  0  0  0  0  0
   -0.5566    0.0596   -0.4364 C   0  0  2  0  0  0  0  0  0  0  0  0
   -0.5654   -0.1829   -1.4991 H   0  0  0  0  0  0  0  0  0  0  0  0
   -1.9627    0.2586    0.0678 C   0  0  0  0  0  0  0  0  0  0  0  0
   -2.1999    1.1336    0.8666 O   0  0  0  0  0  0  0  0  0  0  0  0
   -2.9516   -0.5362   -0.3704 O   0  0  0  0  0  0  0  0  0  0  0  0
    0.1527   -1.0537    0.3641 C   0  0  0  0  0  0  0  0  0  0  0  0
    1.6121   -0.5754    0.5091 C   0  0  0  0  0  0  0  0  0  0  0  0
    1.6618    0.7866   -0.2159 C   0  0  0  0  0  0  0  0  0  0  0  0
    0.1043    1.9677   -0.9077 H   0  0  0  0  0  0  0  0  0  0  0  0
   -3.8369   -0.3703   -0.0185 H   0  0  0  0  0  0  0  0  0  0  0  0
   -0.3080   -1.1666    1.3454 H   0  0  0  0  0  0  0  0  0  0  0  0
    0.1156   -1.9957   -0.1831 H   0  0  0  0  0  0  0  0  0  0  0  0
    1.8677   -0.4536    1.5617 H   0  0  0  0  0  0  0  0  0  0  0  0
    2.2914   -1.2827    0.0332 H   0  0  0  0  0  0  0  0  0  0  0  0
    2.0002    0.6579   -1.2440 H   0  0  0  0  0  0  0  0  0  0  0  0
    2.3157    1.4772    0.3168 H   0  0  0  0  0  0  0  0  0  0  0  0
  1  2  1  0  0  0  0
  1  9  1  0  0  0  0
  1 10  1  0  0  0  0
  2  3  1  6  0  0  0
  2  4  1  0  0  0  0
  2  7  1  0  0  0  0
  4  5  2  0  0  0  0
  4  6  1  0  0  0  0
  6 11  1  0  0  0  0
  7  8  1  0  0  0  0
  7 12  1  0  0  0  0
  7 13  1  0  0  0  0
  8  9  1  0  0  0  0
  8 14  1  0  0  0  0
  8 15  1  0  0  0  0
  9 16  1  0  0  0  0
  9 17  1  0  0  0  0
M  END
