C3H6O2
 OpenBabel01061903463D

 11 10  0  0  0  0  0  0  0  0999 V2000
    1.0400    0.2169   -0.0021 C   0  0  0  0  0  0  0  0  0  0  0  0
   -0.1997   -0.6400   -0.0015 C   0  0  0  0  0  0  0  0  0  0  0  0
   -1.4395    0.2565    0.0012 C   0  0  0  0  0  0  0  0  0  0  0  0
    0.9419    1.4212   -0.0005 O   0  0  0  0  0  0  0  0  0  0  0  0
    2.2530   -0.3576    0.0012 O   0  0  0  0  0  0  0  0  0  0  0  0
   -0.2075   -1.2682   -0.8923 H   0  0  0  0  0  0  0  0  0  0  0  0
   -0.2052   -1.2704    0.8877 H   0  0  0  0  0  0  0  0  0  0  0  0
   -1.4316    0.8847    0.8919 H   0  0  0  0  0  0  0  0  0  0  0  0
   -1.4339    0.8869   -0.8880 H   0  0  0  0  0  0  0  0  0  0  0  0
   -2.3361   -0.3633    0.0016 H   0  0  0  0  0  0  0  0  0  0  0  0
    3.0186    0.2331    0.0007 H   0  0  0  0  0  0  0  0  0  0  0  0
  1  2  1  0  0  0  0
  1  4  2  0  0  0  0
  1  5  1  0  0  0  0
  2  3  1  0  0  0  0
  2  6  1  0  0  0  0
  2  7  1  0  0  0  0
  3  8  1  0  0  0  0
  3  9  1  0  0  0  0
  3 10  1  0  0  0  0
  5 11  1  0  0  0  0
M  END
