C3H4
 OpenBabel01061903463D

  7  6  0  0  0  0  0  0  0  0999 V2000
   -1.6854   -0.0000   -0.0000 C   0  0  0  0  0  0  0  0  0  0  0  0
   -0.5114    0.0000   -0.0000 C   0  0  0  0  0  0  0  0  0  0  0  0
    0.9606    0.0000   -0.0000 C   0  0  0  0  0  0  0  0  0  0  0  0
   -2.7354    0.0000   -0.0000 H   0  0  0  0  0  0  0  0  0  0  0  0
    1.3239   -0.0000    1.0277 H   0  0  0  0  0  0  0  0  0  0  0  0
    1.3239   -0.8900   -0.5138 H   0  0  0  0  0  0  0  0  0  0  0  0
    1.3239    0.8900   -0.5138 H   0  0  0  0  0  0  0  0  0  0  0  0
  1  2  3  0  0  0  0
  1  4  1  0  0  0  0
  2  3  1  0  0  0  0
  3  5  1  0  0  0  0
  3  6  1  0  0  0  0
  3  7  1  0  0  0  0
M  END
