C5H5N
 OpenBabel01061903473D

 11 11  0  0  0  0  0  0  0  0999 V2000
    0.0002   -1.5572   -0.0001 N   0  0  0  0  0  0  0  0  0  0  0  0
   -1.1518   -0.9152    0.0002 C   0  0  0  0  0  0  0  0  0  0  0  0
   -1.1912    0.4662    0.0000 C   0  0  0  0  0  0  0  0  0  0  0  0
   -0.0002    1.1761    0.0000 C   0  0  0  0  0  0  0  0  0  0  0  0
    1.1910    0.4665    0.0002 C   0  0  0  0  0  0  0  0  0  0  0  0
    1.1519   -0.9150   -0.0001 C   0  0  0  0  0  0  0  0  0  0  0  0
   -2.0750   -1.4755    0.0002 H   0  0  0  0  0  0  0  0  0  0  0  0
   -2.1377    0.9863   -0.0005 H   0  0  0  0  0  0  0  0  0  0  0  0
   -0.0003    2.2561   -0.0005 H   0  0  0  0  0  0  0  0  0  0  0  0
    2.1374    0.9868   -0.0002 H   0  0  0  0  0  0  0  0  0  0  0  0
    2.0753   -1.4751    0.0004 H   0  0  0  0  0  0  0  0  0  0  0  0
  1  2  2  0  0  0  0
  1  6  1  0  0  0  0
  2  3  1  0  0  0  0
  2  7  1  0  0  0  0
  3  4  2  0  0  0  0
  3  8  1  0  0  0  0
  4  5  1  0  0  0  0
  4  9  1  0  0  0  0
  5  6  2  0  0  0  0
  5 10  1  0  0  0  0
  6 11  1  0  0  0  0
M  END
