C7H6O3
 OpenBabel01061903493D

 16 16  0  0  0  0  0  0  0  0999 V2000
    2.0191   -0.0725    0.0543 C   0  0  0  0  0  0  0  0  0  0  0  0
    0.5453   -0.0994    0.0543 C   0  0  0  0  0  0  0  0  0  0  0  0
   -0.1820    1.0994    0.0669 C   0  0  0  0  0  0  0  0  0  0  0  0
    0.4674    2.2903    0.0791 O   0  0  0  0  0  0  0  0  0  0  0  0
   -1.5682    1.0619    0.0663 C   0  0  0  0  0  0  0  0  0  0  0  0
   -2.2279   -0.1512    0.0533 C   0  0  0  0  0  0  0  0  0  0  0  0
   -1.5133   -1.3377    0.0413 C   0  0  0  0  0  0  0  0  0  0  0  0
   -0.1353   -1.3196    0.0359 C   0  0  0  0  0  0  0  0  0  0  0  0
    2.6073    0.9906    0.0652 O   0  0  0  0  0  0  0  0  0  0  0  0
    2.7140   -1.2270    0.0478 O   0  0  0  0  0  0  0  0  0  0  0  0
    0.6555    2.6447   -0.8007 H   0  0  0  0  0  0  0  0  0  0  0  0
   -2.1326    1.9827    0.0763 H   0  0  0  0  0  0  0  0  0  0  0  0
   -3.3077   -0.1749    0.0529 H   0  0  0  0  0  0  0  0  0  0  0  0
   -2.0384   -2.2814    0.0320 H   0  0  0  0  0  0  0  0  0  0  0  0
    0.4177   -2.2472    0.0265 H   0  0  0  0  0  0  0  0  0  0  0  0
    3.6786   -1.1588    0.0480 H   0  0  0  0  0  0  0  0  0  0  0  0
  1  2  1  0  0  0  0
  1  9  2  0  0  0  0
  1 10  1  0  0  0  0
  2  3  1  0  0  0  0
  2  8  2  0  0  0  0
  3  4  1  0  0  0  0
  3  5  2  0  0  0  0
  4 11  1  0  0  0  0
  5  6  1  0  0  0  0
  5 12  1  0  0  0  0
  6  7  2  0  0  0  0
  6 13  1  0  0  0  0
  7  8  1  0  0  0  0
  7 14  1  0  0  0  0
  8 15  1  0  0  0  0
 10 16  1  0  0  0  0
M  END
