C27H40O4
 OpenBabel01061903503D

 71 74  0  0  0  0  0  0  0  0999 V2000
    1.8780   -0.6078    0.0033 C   0  0  2  0  0  0  0  0  0  0  0  0
   -0.0244    1.0870    0.3929 C   0  0  1  0  0  0  0  0  0  0  0  0
   -2.4612    0.2507    0.2460 C   0  0  1  0  0  0  0  0  0  0  0  0
   -3.6946    0.5064   -0.6500 C   0  0  2  0  0  0  0  0  0  0  0  0
    4.9326    0.4573    0.5372 C   0  0  0  0  0  0  0  0  0  0  0  0
    4.7297    1.3226   -1.7702 C   0  0  0  0  0  0  0  0  0  0  0  0
    2.2534   -0.8751    1.4561 C   0  0  0  0  0  0  0  0  0  0  0  0
    0.0474    1.1934    1.9136 C   0  0  0  0  0  0  0  0  0  0  0  0
   -2.9306    0.2867    1.7010 C   0  0  0  0  0  0  0  0  0  0  0  0
   -3.7256   -4.4401    0.3857 C   0  0  0  0  0  0  0  0  0  0  0  0
   -2.2355   -3.5020   -1.1800 O   0  0  0  0  0  0  0  0  0  0  0  0
   -6.1406    1.4421   -1.5815 O   0  0  0  0  0  0  0  0  0  0  0  0
   -5.3722   -1.1360   -0.8533 O   0  0  0  0  0  0  0  0  0  0  0  0
    2.1616   -1.8897   -0.8026 C   0  0  0  0  0  0  0  0  0  0  0  0
    3.6536   -2.2079   -0.7389 C   0  0  0  0  0  0  0  0  0  0  0  0
    4.4683   -1.0930   -1.3736 C   0  0  0  0  0  0  0  0  0  0  0  0
    0.8805    2.1764   -0.2023 C   0  0  0  0  0  0  0  0  0  0  0  0
    2.3540    1.8459    0.0653 C   0  0  0  0  0  0  0  0  0  0  0  0
   -0.5060   -1.3550    0.4496 C   0  0  0  0  0  0  0  0  0  0  0  0
   -1.9581    2.7001    0.4029 C   0  0  0  0  0  0  0  0  0  0  0  0
   -2.8590   -3.3340   -0.1587 C   0  0  0  0  0  0  0  0  0  0  0  0
   -2.7797   -2.1620    0.4909 O   0  0  0  0  0  0  0  0  0  0  0  0
   -1.9241   -1.1400   -0.0925 C   0  0  1  0  0  0  0  0  0  0  0  0
   -4.0862    1.9542   -0.6233 C   0  0  0  0  0  0  0  0  0  0  0  0
   -5.4090    2.3074   -1.1478 C   0  0  0  0  0  0  0  0  0  0  0  0
   -4.8623   -0.3024   -0.1438 C   0  0  0  0  0  0  0  0  0  0  0  0
   -3.3385    2.9332   -0.1525 C   0  0  0  0  0  0  0  0  0  0  0  0
    2.6824    0.5255   -0.6254 C   0  0  1  0  0  0  0  0  0  0  0  0
    0.3974   -0.2767   -0.1331 C   0  0  2  0  0  0  0  0  0  0  0  0
   -1.4543    1.3440   -0.0881 C   0  0  1  0  0  0  0  0  0  0  0  0
    4.1651    0.2781   -0.7723 C   0  0  0  0  0  0  0  0  0  0  0  0
   -5.7323    3.3379   -1.1481 H   0  0  0  0  0  0  0  0  0  0  0  0
   -5.2427   -0.1361    0.8532 H   0  0  0  0  0  0  0  0  0  0  0  0
    0.1893   -0.2590   -1.2319 H   0  0  0  0  0  0  0  0  0  0  0  0
   -1.4033    1.4060   -1.2008 H   0  0  0  0  0  0  0  0  0  0  0  0
    2.2820    0.6289   -1.6682 H   0  0  0  0  0  0  0  0  0  0  0  0
    1.5920   -2.7126   -0.3759 H   0  0  0  0  0  0  0  0  0  0  0  0
    1.8614   -1.7285   -1.8365 H   0  0  0  0  0  0  0  0  0  0  0  0
    3.9758   -2.3875    0.2826 H   0  0  0  0  0  0  0  0  0  0  0  0
    3.8302   -3.1369   -1.3043 H   0  0  0  0  0  0  0  0  0  0  0  0
    5.5357   -1.3070   -1.2412 H   0  0  0  0  0  0  0  0  0  0  0  0
    4.2660   -1.0609   -2.4497 H   0  0  0  0  0  0  0  0  0  0  0  0
    4.8321    1.4874    0.8792 H   0  0  0  0  0  0  0  0  0  0  0  0
    4.5268   -0.2171    1.2914 H   0  0  0  0  0  0  0  0  0  0  0  0
    5.9861    0.2294    0.3751 H   0  0  0  0  0  0  0  0  0  0  0  0
    4.2415    1.2020   -2.7373 H   0  0  0  0  0  0  0  0  0  0  0  0
    4.5408    2.3268   -1.3907 H   0  0  0  0  0  0  0  0  0  0  0  0
    5.8033    1.1731   -1.8840 H   0  0  0  0  0  0  0  0  0  0  0  0
    3.2589   -1.2936    1.5004 H   0  0  0  0  0  0  0  0  0  0  0  0
    2.2236    0.0591    2.0168 H   0  0  0  0  0  0  0  0  0  0  0  0
    1.5462   -1.5820    1.8899 H   0  0  0  0  0  0  0  0  0  0  0  0
    0.7132    2.2312   -1.2772 H   0  0  0  0  0  0  0  0  0  0  0  0
    0.6394    3.1340    0.2560 H   0  0  0  0  0  0  0  0  0  0  0  0
    2.9622    2.6523   -0.3536 H   0  0  0  0  0  0  0  0  0  0  0  0
    2.5397    1.7931    1.1316 H   0  0  0  0  0  0  0  0  0  0  0  0
   -0.5191   -1.3395    1.5328 H   0  0  0  0  0  0  0  0  0  0  0  0
   -0.1630   -2.3411    0.1187 H   0  0  0  0  0  0  0  0  0  0  0  0
   -1.9081   -1.2685   -1.1764 H   0  0  0  0  0  0  0  0  0  0  0  0
   -0.4574    0.3377    2.3620 H   0  0  0  0  0  0  0  0  0  0  0  0
    1.0910    1.2053    2.2281 H   0  0  0  0  0  0  0  0  0  0  0  0
   -0.4400    2.1132    2.2369 H   0  0  0  0  0  0  0  0  0  0  0  0
   -1.3032    3.4884    0.0236 H   0  0  0  0  0  0  0  0  0  0  0  0
   -1.9963    2.7589    1.4814 H   0  0  0  0  0  0  0  0  0  0  0  0
   -3.7225    3.9378   -0.1605 H   0  0  0  0  0  0  0  0  0  0  0  0
   -3.4598    0.2125   -1.6679 H   0  0  0  0  0  0  0  0  0  0  0  0
   -2.0760    0.1426    2.3621 H   0  0  0  0  0  0  0  0  0  0  0  0
   -3.3929    1.2514    1.9099 H   0  0  0  0  0  0  0  0  0  0  0  0
   -3.6573   -0.5083    1.8681 H   0  0  0  0  0  0  0  0  0  0  0  0
   -3.1388   -5.0624    1.0613 H   0  0  0  0  0  0  0  0  0  0  0  0
   -4.5673   -4.0089    0.9277 H   0  0  0  0  0  0  0  0  0  0  0  0
   -4.0977   -5.0491   -0.4382 H   0  0  0  0  0  0  0  0  0  0  0  0
  1 14  1  0  0  0  0
  1 28  1  0  0  0  0
  1 29  1  0  0  0  0
  1  7  1  1  0  0  0
  2  8  1  1  0  0  0
  2 30  1  0  0  0  0
  2 17  1  0  0  0  0
  2 29  1  0  0  0  0
  3 23  1  0  0  0  0
  3  9  1  1  0  0  0
  3  4  1  0  0  0  0
  3 30  1  0  0  0  0
  4 26  1  0  0  0  0
  4 24  1  0  0  0  0
  4 65  1  6  0  0  0
  5 31  1  0  0  0  0
  5 43  1  0  0  0  0
  5 44  1  0  0  0  0
  5 45  1  0  0  0  0
  6 31  1  0  0  0  0
  6 46  1  0  0  0  0
  6 47  1  0  0  0  0
  6 48  1  0  0  0  0
  7 49  1  0  0  0  0
  7 50  1  0  0  0  0
  7 51  1  0  0  0  0
  8 59  1  0  0  0  0
  8 60  1  0  0  0  0
  8 61  1  0  0  0  0
  9 66  1  0  0  0  0
  9 67  1  0  0  0  0
  9 68  1  0  0  0  0
 10 21  1  0  0  0  0
 10 69  1  0  0  0  0
 10 70  1  0  0  0  0
 10 71  1  0  0  0  0
 11 21  2  0  0  0  0
 12 25  2  0  0  0  0
 13 26  2  0  0  0  0
 14 15  1  0  0  0  0
 14 37  1  0  0  0  0
 14 38  1  0  0  0  0
 15 16  1  0  0  0  0
 15 39  1  0  0  0  0
 15 40  1  0  0  0  0
 16 31  1  0  0  0  0
 16 41  1  0  0  0  0
 16 42  1  0  0  0  0
 17 18  1  0  0  0  0
 17 52  1  0  0  0  0
 17 53  1  0  0  0  0
 18 28  1  0  0  0  0
 18 54  1  0  0  0  0
 18 55  1  0  0  0  0
 19 29  1  0  0  0  0
 19 23  1  0  0  0  0
 19 56  1  0  0  0  0
 19 57  1  0  0  0  0
 20 27  1  0  0  0  0
 20 30  1  0  0  0  0
 20 62  1  0  0  0  0
 20 63  1  0  0  0  0
 21 22  1  0  0  0  0
 22 23  1  0  0  0  0
 23 58  1  6  0  0  0
 24 25  1  0  0  0  0
 24 27  2  0  0  0  0
 25 32  1  0  0  0  0
 26 33  1  0  0  0  0
 27 64  1  0  0  0  0
 28 31  1  0  0  0  0
 28 36  1  6  0  0  0
 29 34  1  6  0  0  0
 30 35  1  6  0  0  0
M  END
