C3H7NO3
 OpenBabel01061903503D

 14 13  0  0  0  0  0  0  0  0999 V2000
    0.3209    1.6060   -0.4013 N   0  0  0  0  0  0  0  0  0  0  0  0
    0.0271    0.1687   -0.4781 C   0  0  1  0  0  0  0  0  0  0  0  0
    0.1645   -0.1760   -1.5029 H   0  0  0  0  0  0  0  0  0  0  0  0
    0.9746   -0.5958    0.4485 C   0  0  0  0  0  0  0  0  0  0  0  0
    2.3163   -0.4584   -0.0237 O   0  0  0  0  0  0  0  0  0  0  0  0
   -1.3977   -0.0762   -0.0525 C   0  0  0  0  0  0  0  0  0  0  0  0
   -1.9808    0.7494    0.6095 O   0  0  0  0  0  0  0  0  0  0  0  0
   -2.0189   -1.2114   -0.4090 O   0  0  0  0  0  0  0  0  0  0  0  0
   -0.2479    2.1266   -1.0520 H   0  0  0  0  0  0  0  0  0  0  0  0
    0.2006    1.9499    0.5396 H   0  0  0  0  0  0  0  0  0  0  0  0
    0.9014   -0.1905    1.4577 H   0  0  0  0  0  0  0  0  0  0  0  0
    0.6995   -1.6504    0.4597 H   0  0  0  0  0  0  0  0  0  0  0  0
    2.9727   -0.9188    0.5170 H   0  0  0  0  0  0  0  0  0  0  0  0
   -2.9325   -1.3236   -0.1125 H   0  0  0  0  0  0  0  0  0  0  0  0
  1  2  1  0  0  0  0
  1  9  1  0  0  0  0
  1 10  1  0  0  0  0
  2  3  1  6  0  0  0
  2  4  1  0  0  0  0
  2  6  1  0  0  0  0
  4  5  1  0  0  0  0
  4 11  1  0  0  0  0
  4 12  1  0  0  0  0
  5 13  1  0  0  0  0
  6  7  2  0  0  0  0
  6  8  1  0  0  0  0
  8 14  1  0  0  0  0
M  END
