C9H11NO6
 OpenBabel01061903503D

 27 28  0  0  0  0  0  0  0  0999 V2000
   -0.3728   -0.3450    0.7030 C   0  0  2  0  0  0  0  0  0  0  0  0
    0.2246   -1.2961   -0.3576 C   0  0  1  0  0  0  0  0  0  0  0  0
    1.7885    0.3872    0.4513 C   0  0  1  0  0  0  0  0  0  0  0  0
    1.6791   -0.8033   -0.5270 C   0  0  1  0  0  0  0  0  0  0  0  0
    2.6588    1.4926   -0.1500 C   0  0  0  0  0  0  0  0  0  0  0  0
    0.5685   -3.2856   -0.5149 H   0  0  0  0  0  0  0  0  0  0  0  0
   -4.2317    1.1386   -1.4152 H   0  0  0  0  0  0  0  0  0  0  0  0
    3.5304   -1.5779   -0.2548 H   0  0  0  0  0  0  0  0  0  0  0  0
    3.3219    3.3023    0.4716 H   0  0  0  0  0  0  0  0  0  0  0  0
   -1.6330    1.0603   -1.7515 O   0  0  0  0  0  0  0  0  0  0  0  0
   -5.2215    0.0867    0.7725 O   0  0  0  0  0  0  0  0  0  0  0  0
    0.2046   -2.6456    0.1120 O   0  0  0  0  0  0  0  0  0  0  0  0
    2.6019   -1.8334   -0.1672 O   0  0  0  0  0  0  0  0  0  0  0  0
    2.7819    2.5646    0.7868 O   0  0  0  0  0  0  0  0  0  0  0  0
   -1.8111   -0.0339    0.3781 C   0  0  0  0  0  0  0  0  0  0  0  0
   -2.3140    0.6480   -0.8349 C   0  0  0  0  0  0  0  0  0  0  0  0
   -4.0692    0.1724    0.4000 C   0  0  0  0  0  0  0  0  0  0  0  0
    0.4315    0.8517    0.6204 O   0  0  0  0  0  0  0  0  0  0  0  0
   -2.8840   -0.3276    1.1311 C   0  0  0  0  0  0  0  0  0  0  0  0
   -3.6536    0.7344   -0.7493 N   0  0  0  0  0  0  0  0  0  0  0  0
   -0.2960   -0.7860    1.6969 H   0  0  0  0  0  0  0  0  0  0  0  0
   -0.3199   -1.2098   -1.2979 H   0  0  0  0  0  0  0  0  0  0  0  0
   -2.8819   -0.8319    2.0861 H   0  0  0  0  0  0  0  0  0  0  0  0
    2.1990    0.0593    1.4063 H   0  0  0  0  0  0  0  0  0  0  0  0
    1.8545   -0.4757   -1.5517 H   0  0  0  0  0  0  0  0  0  0  0  0
    3.6472    1.0935   -0.3775 H   0  0  0  0  0  0  0  0  0  0  0  0
    2.1964    1.8614   -1.0656 H   0  0  0  0  0  0  0  0  0  0  0  0
  1 15  1  0  0  0  0
  1 18  1  0  0  0  0
  1  2  1  0  0  0  0
  1 21  1  1  0  0  0
  2  4  1  0  0  0  0
  2 12  1  0  0  0  0
  2 22  1  6  0  0  0
  3 18  1  0  0  0  0
  3  5  1  0  0  0  0
  3  4  1  0  0  0  0
  3 24  1  1  0  0  0
  4 13  1  0  0  0  0
  4 25  1  6  0  0  0
  5 14  1  0  0  0  0
  5 26  1  0  0  0  0
  5 27  1  0  0  0  0
  6 12  1  0  0  0  0
  7 20  1  0  0  0  0
  8 13  1  0  0  0  0
  9 14  1  0  0  0  0
 10 16  2  0  0  0  0
 11 17  2  0  0  0  0
 15 16  1  0  0  0  0
 15 19  2  0  0  0  0
 16 20  1  0  0  0  0
 17 19  1  0  0  0  0
 17 20  1  0  0  0  0
 19 23  1  0  0  0  0
M  END
