Na2O8S2
 OpenBabel01061903513D

 12  9  0  0  0  0  0  0  0  0999 V2000
   -3.9585    1.3669   -0.0102 S   0  0  0  0  0  0  0  0  0  0  0  0
   -4.2054    1.2026   -1.4343 O   0  0  0  0  0  0  0  0  0  0  0  0
   -3.7102    2.7558    0.3441 O   0  0  0  0  0  0  0  0  0  0  0  0
   -5.0143    0.7776    0.7986 O   0  5  0  0  0  0  0  0  0  0  0  0
   -2.6831    0.5987    0.3056 O   0  0  0  0  0  0  0  0  0  0  0  0
   -2.6242   -0.7372   -0.3026 O   0  0  0  0  0  0  0  0  0  0  0  0
   -1.3488   -1.5054    0.0132 S   0  0  0  0  0  0  0  0  0  0  0  0
   -1.2833   -2.6139   -0.9265 O   0  0  0  0  0  0  0  0  0  0  0  0
   -0.2444   -0.5750   -0.1622 O   0  0  0  0  0  0  0  0  0  0  0  0
   -1.4643   -1.9625    1.3894 O   0  5  0  0  0  0  0  0  0  0  0  0
    8.9668   -0.1488   -0.0328 Na  0  3  0  0  0  0  0  0  0  0  0  0
   17.5701    0.8415    0.0181 Na  0  3  0  0  0  0  0  0  0  0  0  0
  1  2  2  0  0  0  0
  1  3  2  0  0  0  0
  1  4  1  0  0  0  0
  1  5  1  0  0  0  0
  5  6  1  0  0  0  0
  6  7  1  0  0  0  0
  7  8  2  0  0  0  0
  7  9  2  0  0  0  0
  7 10  1  0  0  0  0
M  CHG  4   4  -1  10  -1  11   1  12   1
M  END
