C6H8O2
 OpenBabel01061903523D

 16 15  0  0  0  0  0  0  0  0999 V2000
    2.9383    0.1103   -0.0018 C   0  0  0  0  0  0  0  0  0  0  0  0
    1.6425   -0.4652   -0.0021 C   0  0  0  0  0  0  0  0  0  0  0  0
    0.5488    0.3311   -0.0005 C   0  0  0  0  0  0  0  0  0  0  0  0
   -0.7883   -0.2627   -0.0007 C   0  0  0  0  0  0  0  0  0  0  0  0
   -1.8671    0.5228    0.0008 C   0  0  0  0  0  0  0  0  0  0  0  0
   -3.2444   -0.0889    0.0006 C   0  0  0  0  0  0  0  0  0  0  0  0
    3.0667    1.3199   -0.0002 O   0  0  0  0  0  0  0  0  0  0  0  0
    4.0292   -0.6838    0.0022 O   0  0  0  0  0  0  0  0  0  0  0  0
    1.5286   -1.5391   -0.0035 H   0  0  0  0  0  0  0  0  0  0  0  0
    0.6627    1.4052    0.0010 H   0  0  0  0  0  0  0  0  0  0  0  0
   -0.9022   -1.3365   -0.0022 H   0  0  0  0  0  0  0  0  0  0  0  0
   -1.7532    1.5968    0.0023 H   0  0  0  0  0  0  0  0  0  0  0  0
   -3.3683   -0.7046   -0.8902 H   0  0  0  0  0  0  0  0  0  0  0  0
   -3.3675   -0.7071    0.8897 H   0  0  0  0  0  0  0  0  0  0  0  0
   -3.9936    0.7030    0.0020 H   0  0  0  0  0  0  0  0  0  0  0  0
    4.8671   -0.2012    0.0020 H   0  0  0  0  0  0  0  0  0  0  0  0
  1  2  1  0  0  0  0
  1  7  2  0  0  0  0
  1  8  1  0  0  0  0
  2  3  2  0  0  0  0
  2  9  1  0  0  0  0
  3  4  1  0  0  0  0
  3 10  1  0  0  0  0
  4  5  2  0  0  0  0
  4 11  1  0  0  0  0
  5  6  1  0  0  0  0
  5 12  1  0  0  0  0
  6 13  1  0  0  0  0
  6 14  1  0  0  0  0
  6 15  1  0  0  0  0
  8 16  1  0  0  0  0
M  END
