C12H22O11
 OpenBabel01061903543D

 45 46  0  0  0  0  0  0  0  0999 V2000
    1.0520   -1.4048    0.2788 C   0  0  2  0  0  0  0  0  0  0  0  0
    1.8931   -1.7537   -0.9679 C   0  0  2  0  0  0  0  0  0  0  0  0
   -1.1613   -0.8058    0.9772 C   0  0  1  0  0  0  0  0  0  0  0  0
    2.6810    0.2709    0.0355 C   0  0  1  0  0  0  0  0  0  0  0  0
    2.4888   -0.3741   -1.3602 C   0  0  1  0  0  0  0  0  0  0  0  0
   -2.6233   -1.0919    0.6245 C   0  0  1  0  0  0  0  0  0  0  0  0
   -1.2830    1.3925    0.0262 C   0  0  1  0  0  0  0  0  0  0  0  0
   -3.0045   -0.2930   -0.6257 C   0  0  2  0  0  0  0  0  0  0  0  0
   -2.7499    1.1947   -0.3647 C   0  0  2  0  0  0  0  0  0  0  0  0
    1.1809   -2.5167    1.3219 C   0  0  0  0  0  0  0  0  0  0  0  0
    2.6735    1.7966   -0.0790 C   0  0  0  0  0  0  0  0  0  0  0  0
   -1.0348    2.8678    0.3468 C   0  0  0  0  0  0  0  0  0  0  0  0
    1.5464   -2.4997   -2.8184 H   0  0  0  0  0  0  0  0  0  0  0  0
    0.6161   -2.7530    3.2523 H   0  0  0  0  0  0  0  0  0  0  0  0
    4.1486    0.3096   -2.2977 H   0  0  0  0  0  0  0  0  0  0  0  0
   -2.5596   -3.0553    1.1167 H   0  0  0  0  0  0  0  0  0  0  0  0
    2.8423    3.3394    1.2219 H   0  0  0  0  0  0  0  0  0  0  0  0
   -4.6223   -1.4196   -1.0891 H   0  0  0  0  0  0  0  0  0  0  0  0
   -3.9475    1.8635   -1.8546 H   0  0  0  0  0  0  0  0  0  0  0  0
    0.5801    3.9798    0.8534 H   0  0  0  0  0  0  0  0  0  0  0  0
    1.0644   -2.2657   -2.0134 O   0  0  0  0  0  0  0  0  0  0  0  0
    0.5717   -2.0960    2.5442 O   0  0  0  0  0  0  0  0  0  0  0  0
    3.7398   -0.5261   -2.0339 O   0  0  0  0  0  0  0  0  0  0  0  0
   -2.7882   -2.4879    0.3677 O   0  0  0  0  0  0  0  0  0  0  0  0
    2.8376    2.3724    1.2185 O   0  0  0  0  0  0  0  0  0  0  0  0
   -4.3880   -0.4968   -0.9197 O   0  0  0  0  0  0  0  0  0  0  0  0
   -3.0335    1.9426   -1.5489 O   0  0  0  0  0  0  0  0  0  0  0  0
    0.3497    3.0651    0.6404 O   0  0  0  0  0  0  0  0  0  0  0  0
   -0.3189   -1.2436   -0.0909 O   0  0  0  0  0  0  0  0  0  0  0  0
    1.5589   -0.1763    0.8130 O   0  0  0  0  0  0  0  0  0  0  0  0
   -0.9868    0.5984    1.1768 O   0  0  0  0  0  0  0  0  0  0  0  0
    2.6840   -2.4605   -0.7169 H   0  0  0  0  0  0  0  0  0  0  0  0
    0.6828   -3.4155    0.9583 H   0  0  0  0  0  0  0  0  0  0  0  0
    2.2353   -2.7309    1.4963 H   0  0  0  0  0  0  0  0  0  0  0  0
   -0.8966   -1.3384    1.8906 H   0  0  0  0  0  0  0  0  0  0  0  0
    3.6133   -0.0695    0.4861 H   0  0  0  0  0  0  0  0  0  0  0  0
    1.7866    0.1993   -1.9653 H   0  0  0  0  0  0  0  0  0  0  0  0
   -3.2632   -0.7953    1.4555 H   0  0  0  0  0  0  0  0  0  0  0  0
    3.4914    2.1165   -0.7246 H   0  0  0  0  0  0  0  0  0  0  0  0
    1.7251    2.1243   -0.5047 H   0  0  0  0  0  0  0  0  0  0  0  0
   -0.6420    1.0873   -0.8009 H   0  0  0  0  0  0  0  0  0  0  0  0
   -2.3996   -0.6254   -1.4693 H   0  0  0  0  0  0  0  0  0  0  0  0
   -3.3924    1.5386    0.4458 H   0  0  0  0  0  0  0  0  0  0  0  0
   -1.3148    3.4783   -0.5117 H   0  0  0  0  0  0  0  0  0  0  0  0
   -1.6342    3.1579    1.2098 H   0  0  0  0  0  0  0  0  0  0  0  0
  1 29  1  6  0  0  0
  1 30  1  0  0  0  0
  1  2  1  0  0  0  0
  1 10  1  0  0  0  0
  2  5  1  0  0  0  0
  2 21  1  0  0  0  0
  2 32  1  1  0  0  0
  3 29  1  0  0  0  0
  3 31  1  0  0  0  0
  3  6  1  0  0  0  0
  3 35  1  1  0  0  0
  4 30  1  0  0  0  0
  4 11  1  0  0  0  0
  4  5  1  0  0  0  0
  4 36  1  1  0  0  0
  5 23  1  0  0  0  0
  5 37  1  6  0  0  0
  6  8  1  0  0  0  0
  6 24  1  0  0  0  0
  6 38  1  1  0  0  0
  7 31  1  0  0  0  0
  7  9  1  0  0  0  0
  7 12  1  0  0  0  0
  7 41  1  6  0  0  0
  8 26  1  0  0  0  0
  8  9  1  0  0  0  0
  8 42  1  6  0  0  0
  9 27  1  0  0  0  0
  9 43  1  1  0  0  0
 10 22  1  0  0  0  0
 10 33  1  0  0  0  0
 10 34  1  0  0  0  0
 11 25  1  0  0  0  0
 11 39  1  0  0  0  0
 11 40  1  0  0  0  0
 12 28  1  0  0  0  0
 12 44  1  0  0  0  0
 12 45  1  0  0  0  0
 13 21  1  0  0  0  0
 14 22  1  0  0  0  0
 15 23  1  0  0  0  0
 16 24  1  0  0  0  0
 17 25  1  0  0  0  0
 18 26  1  0  0  0  0
 19 27  1  0  0  0  0
 20 28  1  0  0  0  0
M  END
