O3S
 OpenBabel01061903543D

  4  3  0  0  0  0  0  0  0  0999 V2000
   -0.0000   -0.0000   -0.4780 S   0  0  0  0  0  0  0  0  0  0  0  0
   -1.3428   -0.0765    0.1593 O   0  0  0  0  0  0  0  0  0  0  0  0
    0.6051    1.2012    0.1593 O   0  5  0  0  0  0  0  0  0  0  0  0
    0.7377   -1.1246    0.1593 O   0  5  0  0  0  0  0  0  0  0  0  0
  1  2  2  0  0  0  0
  1  3  1  0  0  0  0
  1  4  1  0  0  0  0
M  CHG  2   3  -1   4  -1
M  END
