H2S
 OpenBabel01061903543D

  3  2  0  0  0  0  0  0  0  0999 V2000
   -0.0000   -0.5581   -0.0000 S   0  0  0  0  0  0  0  0  0  0  0  0
   -1.0526    0.2791    0.0000 H   0  0  0  0  0  0  0  0  0  0  0  0
    1.0526    0.2791    0.0000 H   0  0  0  0  0  0  0  0  0  0  0  0
  1  2  1  0  0  0  0
  1  3  1  0  0  0  0
M  END
