C14H30O
 OpenBabel01061903563D

 45 44  0  0  0  0  0  0  0  0999 V2000
    7.8899   -0.4289   -0.0000 C   0  0  0  0  0  0  0  0  0  0  0  0
    6.6390    0.4521    0.0000 C   0  0  0  0  0  0  0  0  0  0  0  0
    5.3914   -0.4336   -0.0000 C   0  0  0  0  0  0  0  0  0  0  0  0
    4.1405    0.4475    0.0000 C   0  0  0  0  0  0  0  0  0  0  0  0
    2.8929   -0.4382   -0.0000 C   0  0  0  0  0  0  0  0  0  0  0  0
    1.6421    0.4428    0.0000 C   0  0  0  0  0  0  0  0  0  0  0  0
    0.3945   -0.4428   -0.0000 C   0  0  0  0  0  0  0  0  0  0  0  0
   -0.8564    0.4382   -0.0000 C   0  0  0  0  0  0  0  0  0  0  0  0
   -2.1040   -0.4474    0.0000 C   0  0  0  0  0  0  0  0  0  0  0  0
   -3.3549    0.4336   -0.0000 C   0  0  0  0  0  0  0  0  0  0  0  0
   -4.6025   -0.4521    0.0000 C   0  0  0  0  0  0  0  0  0  0  0  0
   -5.8534    0.4290   -0.0000 C   0  0  0  0  0  0  0  0  0  0  0  0
   -7.1010   -0.4567    0.0000 C   0  0  0  0  0  0  0  0  0  0  0  0
   -8.3518    0.4243   -0.0000 C   0  0  0  0  0  0  0  0  0  0  0  0
    9.0551    0.3983    0.0000 O   0  0  0  0  0  0  0  0  0  0  0  0
    7.8911   -1.0582    0.8900 H   0  0  0  0  0  0  0  0  0  0  0  0
    7.8911   -1.0582   -0.8900 H   0  0  0  0  0  0  0  0  0  0  0  0
    6.6379    1.0814    0.8900 H   0  0  0  0  0  0  0  0  0  0  0  0
    6.6379    1.0814   -0.8900 H   0  0  0  0  0  0  0  0  0  0  0  0
    5.3926   -1.0629   -0.8900 H   0  0  0  0  0  0  0  0  0  0  0  0
    5.3926   -1.0629    0.8900 H   0  0  0  0  0  0  0  0  0  0  0  0
    4.1394    1.0768    0.8900 H   0  0  0  0  0  0  0  0  0  0  0  0
    4.1394    1.0768   -0.8900 H   0  0  0  0  0  0  0  0  0  0  0  0
    2.8941   -1.0675   -0.8900 H   0  0  0  0  0  0  0  0  0  0  0  0
    2.8941   -1.0675    0.8900 H   0  0  0  0  0  0  0  0  0  0  0  0
    1.6409    1.0722    0.8900 H   0  0  0  0  0  0  0  0  0  0  0  0
    1.6409    1.0722   -0.8900 H   0  0  0  0  0  0  0  0  0  0  0  0
    0.3956   -1.0721   -0.8900 H   0  0  0  0  0  0  0  0  0  0  0  0
    0.3956   -1.0721    0.8900 H   0  0  0  0  0  0  0  0  0  0  0  0
   -0.8576    1.0675    0.8900 H   0  0  0  0  0  0  0  0  0  0  0  0
   -0.8576    1.0675   -0.8900 H   0  0  0  0  0  0  0  0  0  0  0  0
   -2.1028   -1.0768   -0.8900 H   0  0  0  0  0  0  0  0  0  0  0  0
   -2.1028   -1.0768    0.8900 H   0  0  0  0  0  0  0  0  0  0  0  0
   -3.3560    1.0629    0.8900 H   0  0  0  0  0  0  0  0  0  0  0  0
   -3.3560    1.0629   -0.8900 H   0  0  0  0  0  0  0  0  0  0  0  0
   -4.6013   -1.0814   -0.8900 H   0  0  0  0  0  0  0  0  0  0  0  0
   -4.6013   -1.0814    0.8900 H   0  0  0  0  0  0  0  0  0  0  0  0
   -5.8545    1.0583    0.8900 H   0  0  0  0  0  0  0  0  0  0  0  0
   -5.8545    1.0583   -0.8900 H   0  0  0  0  0  0  0  0  0  0  0  0
   -7.0998   -1.0860   -0.8900 H   0  0  0  0  0  0  0  0  0  0  0  0
   -7.0998   -1.0860    0.8900 H   0  0  0  0  0  0  0  0  0  0  0  0
   -8.3530    1.0536    0.8900 H   0  0  0  0  0  0  0  0  0  0  0  0
   -8.3530    1.0536   -0.8900 H   0  0  0  0  0  0  0  0  0  0  0  0
   -9.2406   -0.2066    0.0000 H   0  0  0  0  0  0  0  0  0  0  0  0
    9.8872   -0.0944   -0.0000 H   0  0  0  0  0  0  0  0  0  0  0  0
  1  2  1  0  0  0  0
  1 15  1  0  0  0  0
  1 16  1  0  0  0  0
  1 17  1  0  0  0  0
  2  3  1  0  0  0  0
  2 18  1  0  0  0  0
  2 19  1  0  0  0  0
  3  4  1  0  0  0  0
  3 20  1  0  0  0  0
  3 21  1  0  0  0  0
  4  5  1  0  0  0  0
  4 22  1  0  0  0  0
  4 23  1  0  0  0  0
  5  6  1  0  0  0  0
  5 24  1  0  0  0  0
  5 25  1  0  0  0  0
  6  7  1  0  0  0  0
  6 26  1  0  0  0  0
  6 27  1  0  0  0  0
  7  8  1  0  0  0  0
  7 28  1  0  0  0  0
  7 29  1  0  0  0  0
  8  9  1  0  0  0  0
  8 30  1  0  0  0  0
  8 31  1  0  0  0  0
  9 10  1  0  0  0  0
  9 32  1  0  0  0  0
  9 33  1  0  0  0  0
 10 11  1  0  0  0  0
 10 34  1  0  0  0  0
 10 35  1  0  0  0  0
 11 12  1  0  0  0  0
 11 36  1  0  0  0  0
 11 37  1  0  0  0  0
 12 13  1  0  0  0  0
 12 38  1  0  0  0  0
 12 39  1  0  0  0  0
 13 14  1  0  0  0  0
 13 40  1  0  0  0  0
 13 41  1  0  0  0  0
 14 42  1  0  0  0  0
 14 43  1  0  0  0  0
 14 44  1  0  0  0  0
 15 45  1  0  0  0  0
M  END
