C6H3N5O8
 OpenBabel01061903573D

 22 22  0  0  0  0  0  0  0  0999 V2000
   -3.0224    0.6164   -0.3336 N   0  3  0  0  0  0  0  0  0  0  0  0
   -4.1242    0.1066   -0.2348 O   0  0  0  0  0  0  0  0  0  0  0  0
   -2.9187    1.7817   -0.6725 O   0  5  0  0  0  0  0  0  0  0  0  0
   -1.8098   -0.1785   -0.0360 C   0  0  0  0  0  0  0  0  0  0  0  0
   -0.5607    0.4004   -0.1483 C   0  0  0  0  0  0  0  0  0  0  0  0
    0.5766   -0.3462    0.1311 C   0  0  0  0  0  0  0  0  0  0  0  0
    1.8412    0.2361    0.0190 N   0  0  0  0  0  0  0  0  0  0  0  0
    2.1351    1.4130    0.7199 N   0  3  0  0  0  0  0  0  0  0  0  0
    1.3245    1.8736    1.5037 O   0  0  0  0  0  0  0  0  0  0  0  0
    3.2012    1.9756    0.5455 O   0  5  0  0  0  0  0  0  0  0  0  0
    2.8158   -0.3567   -0.7944 N   0  3  0  0  0  0  0  0  0  0  0  0
    2.5924   -1.4271   -1.3309 O   0  0  0  0  0  0  0  0  0  0  0  0
    3.8864    0.1984   -0.9651 O   0  5  0  0  0  0  0  0  0  0  0  0
    0.4536   -1.6735    0.5229 C   0  0  0  0  0  0  0  0  0  0  0  0
   -0.7981   -2.2459    0.6332 C   0  0  0  0  0  0  0  0  0  0  0  0
   -1.9289   -1.4980    0.3596 C   0  0  0  0  0  0  0  0  0  0  0  0
   -0.4344    1.8147   -0.5665 N   0  3  0  0  0  0  0  0  0  0  0  0
   -0.5353    2.7050    0.2584 O   0  0  0  0  0  0  0  0  0  0  0  0
   -0.2295    2.0880   -1.7357 O   0  5  0  0  0  0  0  0  0  0  0  0
    1.3360   -2.2569    0.7406 H   0  0  0  0  0  0  0  0  0  0  0  0
   -0.8945   -3.2777    0.9373 H   0  0  0  0  0  0  0  0  0  0  0  0
   -2.9068   -1.9480    0.4470 H   0  0  0  0  0  0  0  0  0  0  0  0
  1  2  2  0  0  0  0
  1  3  1  0  0  0  0
  1  4  1  0  0  0  0
  4  5  1  0  0  0  0
  4 16  2  0  0  0  0
  5  6  2  0  0  0  0
  5 17  1  0  0  0  0
  6  7  1  0  0  0  0
  6 14  1  0  0  0  0
  7  8  1  0  0  0  0
  7 11  1  0  0  0  0
  8  9  2  0  0  0  0
  8 10  1  0  0  0  0
 11 12  2  0  0  0  0
 11 13  1  0  0  0  0
 14 15  2  0  0  0  0
 14 20  1  0  0  0  0
 15 16  1  0  0  0  0
 15 21  1  0  0  0  0
 16 22  1  0  0  0  0
 17 18  2  0  0  0  0
 17 19  1  0  0  0  0
M  CHG  8   1   1   3  -1   8   1  10  -1  11   1  13  -1  17   1  19  -1
M  END
