C4H8O
 OpenBabel01061903573D

 13 13  0  0  0  0  0  0  0  0999 V2000
    0.7278   -1.1414   -0.0007 C   0  0  0  0  0  0  0  0  0  0  0  0
   -0.7659   -0.7626   -0.0002 C   0  0  0  0  0  0  0  0  0  0  0  0
   -0.7700    0.7648    0.2522 C   0  0  0  0  0  0  0  0  0  0  0  0
    0.6661    1.1674   -0.1695 C   0  0  0  0  0  0  0  0  0  0  0  0
    1.4724    0.0563    0.2776 O   0  0  0  0  0  0  0  0  0  0  0  0
    0.9216   -1.8861    0.7712 H   0  0  0  0  0  0  0  0  0  0  0  0
    1.0101   -1.5348   -0.9773 H   0  0  0  0  0  0  0  0  0  0  0  0
   -1.2177   -0.9910   -0.9655 H   0  0  0  0  0  0  0  0  0  0  0  0
   -1.2912   -1.2830    0.8007 H   0  0  0  0  0  0  0  0  0  0  0  0
   -1.5124    1.2604   -0.3733 H   0  0  0  0  0  0  0  0  0  0  0  0
   -0.9420    0.9844    1.3059 H   0  0  0  0  0  0  0  0  0  0  0  0
    0.7315    1.2781   -1.2519 H   0  0  0  0  0  0  0  0  0  0  0  0
    0.9693    2.0873    0.3305 H   0  0  0  0  0  0  0  0  0  0  0  0
  1  2  1  0  0  0  0
  1  5  1  0  0  0  0
  1  6  1  0  0  0  0
  1  7  1  0  0  0  0
  2  3  1  0  0  0  0
  2  8  1  0  0  0  0
  2  9  1  0  0  0  0
  3  4  1  0  0  0  0
  3 10  1  0  0  0  0
  3 11  1  0  0  0  0
  4  5  1  0  0  0  0
  4 12  1  0  0  0  0
  4 13  1  0  0  0  0
M  END
