CH4N2S
 OpenBabel01061903583D

  8  7  0  0  0  0  0  0  0  0999 V2000
   -0.2612    1.1672    0.0007 N   0  0  0  0  0  0  0  0  0  0  0  0
    0.4127    0.0000    0.0005 C   0  0  0  0  0  0  0  0  0  0  0  0
    2.1247   -0.0000    0.0003 S   0  0  0  0  0  0  0  0  0  0  0  0
   -0.2612   -1.1672    0.0004 N   0  0  0  0  0  0  0  0  0  0  0  0
    0.2238    2.0072    0.0007 H   0  0  0  0  0  0  0  0  0  0  0  0
   -1.2312    1.1672   -0.0033 H   0  0  0  0  0  0  0  0  0  0  0  0
   -1.2312   -1.1672    0.0005 H   0  0  0  0  0  0  0  0  0  0  0  0
    0.2238   -2.0072    0.0003 H   0  0  0  0  0  0  0  0  0  0  0  0
  1  2  1  0  0  0  0
  1  5  1  0  0  0  0
  1  6  1  0  0  0  0
  2  3  2  0  0  0  0
  2  4  1  0  0  0  0
  4  7  1  0  0  0  0
  4  8  1  0  0  0  0
M  END
