C10H14N2O5
 OpenBabel01061903593D

 31 32  0  0  0  0  0  0  0  0999 V2000
    0.4248    0.5290   -0.6188 C   0  0  2  0  0  0  0  0  0  0  0  0
    0.3739    1.0565   -1.5713 H   0  0  0  0  0  0  0  0  0  0  0  0
    1.0369    1.4472    0.4567 C   0  0  0  0  0  0  0  0  0  0  0  0
    2.3393    0.7235    0.8771 C   0  0  2  0  0  0  0  0  0  0  0  0
    2.1836    0.1374    1.7829 H   0  0  0  0  0  0  0  0  0  0  0  0
    3.4070    1.6566    1.0536 O   0  0  0  0  0  0  0  0  0  0  0  0
    2.6053   -0.1990   -0.3397 C   0  0  1  0  0  0  0  0  0  0  0  0
    3.0922    0.3551   -1.1422 H   0  0  0  0  0  0  0  0  0  0  0  0
    3.4537   -1.4036    0.0728 C   0  0  0  0  0  0  0  0  0  0  0  0
    3.7817   -2.1741   -1.0851 O   0  0  0  0  0  0  0  0  0  0  0  0
    1.2830   -0.6178   -0.7404 O   0  0  0  0  0  0  0  0  0  0  0  0
   -0.9178    0.1090   -0.2098 N   0  0  0  0  0  0  0  0  0  0  0  0
   -1.0713   -0.6605    0.8831 C   0  0  0  0  0  0  0  0  0  0  0  0
   -0.0926   -0.9989    1.5202 O   0  0  0  0  0  0  0  0  0  0  0  0
   -2.2932   -1.0607    1.2814 N   0  0  0  0  0  0  0  0  0  0  0  0
   -3.3886   -0.6937    0.5862 C   0  0  0  0  0  0  0  0  0  0  0  0
   -4.4945   -1.0550    0.9460 O   0  0  0  0  0  0  0  0  0  0  0  0
   -3.2413    0.1159   -0.5659 C   0  0  0  0  0  0  0  0  0  0  0  0
   -4.4494    0.5400   -1.3607 C   0  0  0  0  0  0  0  0  0  0  0  0
   -2.0044    0.5076   -0.9397 C   0  0  0  0  0  0  0  0  0  0  0  0
    1.2635    2.4275    0.0374 H   0  0  0  0  0  0  0  0  0  0  0  0
    0.3615    1.5418    1.3070 H   0  0  0  0  0  0  0  0  0  0  0  0
    3.2460    2.3123    1.7460 H   0  0  0  0  0  0  0  0  0  0  0  0
    4.3703   -1.0563    0.5497 H   0  0  0  0  0  0  0  0  0  0  0  0
    2.8914   -2.0213    0.7730 H   0  0  0  0  0  0  0  0  0  0  0  0
    4.3198   -2.9555   -0.8981 H   0  0  0  0  0  0  0  0  0  0  0  0
   -2.3860   -1.6156    2.0716 H   0  0  0  0  0  0  0  0  0  0  0  0
   -5.3488    0.1305   -0.9009 H   0  0  0  0  0  0  0  0  0  0  0  0
   -4.5115    1.6281   -1.3745 H   0  0  0  0  0  0  0  0  0  0  0  0
   -4.3615    0.1680   -2.3815 H   0  0  0  0  0  0  0  0  0  0  0  0
   -1.8726    1.1257   -1.8155 H   0  0  0  0  0  0  0  0  0  0  0  0
  1  2  1  6  0  0  0
  1  3  1  0  0  0  0
  1 11  1  0  0  0  0
  1 12  1  0  0  0  0
  3  4  1  0  0  0  0
  3 21  1  0  0  0  0
  3 22  1  0  0  0  0
  4  5  1  1  0  0  0
  4  6  1  0  0  0  0
  4  7  1  0  0  0  0
  6 23  1  0  0  0  0
  7  8  1  6  0  0  0
  7  9  1  0  0  0  0
  7 11  1  0  0  0  0
  9 10  1  0  0  0  0
  9 24  1  0  0  0  0
  9 25  1  0  0  0  0
 10 26  1  0  0  0  0
 12 13  1  0  0  0  0
 12 20  1  0  0  0  0
 13 14  2  0  0  0  0
 13 15  1  0  0  0  0
 15 16  1  0  0  0  0
 15 27  1  0  0  0  0
 16 17  2  0  0  0  0
 16 18  1  0  0  0  0
 18 19  1  0  0  0  0
 18 20  2  0  0  0  0
 19 28  1  0  0  0  0
 19 29  1  0  0  0  0
 19 30  1  0  0  0  0
 20 31  1  0  0  0  0
M  END
