C5H6N2O2
 OpenBabel01061903593D

 15 15  0  0  0  0  0  0  0  0999 V2000
   -1.5591    0.8817    0.0003 N   0  0  0  0  0  0  0  0  0  0  0  0
   -1.9873   -0.3938    0.0004 C   0  0  0  0  0  0  0  0  0  0  0  0
   -3.1809   -0.6254    0.0002 O   0  0  0  0  0  0  0  0  0  0  0  0
   -1.1129   -1.4171    0.0004 N   0  0  0  0  0  0  0  0  0  0  0  0
    0.2140   -1.1772    0.0003 C   0  0  0  0  0  0  0  0  0  0  0  0
    1.0058   -2.1024   -0.0002 O   0  0  0  0  0  0  0  0  0  0  0  0
    0.6781    0.1603    0.0001 C   0  0  0  0  0  0  0  0  0  0  0  0
    2.1558    0.4558    0.0004 C   0  0  0  0  0  0  0  0  0  0  0  0
   -0.2210    1.1677    0.0002 C   0  0  0  0  0  0  0  0  0  0  0  0
   -2.2051    1.6053   -0.0038 H   0  0  0  0  0  0  0  0  0  0  0  0
   -1.4386   -2.3308    0.0008 H   0  0  0  0  0  0  0  0  0  0  0  0
    2.5123    0.5268   -1.0272 H   0  0  0  0  0  0  0  0  0  0  0  0
    2.3375    1.3999    0.5141 H   0  0  0  0  0  0  0  0  0  0  0  0
    2.6865   -0.3456    0.5146 H   0  0  0  0  0  0  0  0  0  0  0  0
    0.1144    2.1943   -0.0003 H   0  0  0  0  0  0  0  0  0  0  0  0
  1  2  1  0  0  0  0
  1  9  1  0  0  0  0
  1 10  1  0  0  0  0
  2  3  2  0  0  0  0
  2  4  1  0  0  0  0
  4  5  1  0  0  0  0
  4 11  1  0  0  0  0
  5  6  2  0  0  0  0
  5  7  1  0  0  0  0
  7  8  1  0  0  0  0
  7  9  2  0  0  0  0
  8 12  1  0  0  0  0
  8 13  1  0  0  0  0
  8 14  1  0  0  0  0
  9 15  1  0  0  0  0
M  END
