O2Ti
 OpenBabel01061904003D

  3  2  0  0  0  0  0  0  0  0999 V2000
   -0.0000    0.0000    0.0000 Ti  0  0  0  0  0  0  0  0  0  0  0  0
   -1.6435   -0.0000   -0.0000 O   0  0  0  0  0  0  0  0  0  0  0  0
    1.6435   -0.0000   -0.0000 O   0  0  0  0  0  0  0  0  0  0  0  0
  1  2  2  0  0  0  0
  1  3  2  0  0  0  0
M  END
