C6H2
 OpenBabel01061904013D

  8  7  0  0  0  0  0  0  0  0999 V2000
   -1.9640   -0.0000   -0.0000 C   0  0  0  0  0  0  0  0  0  0  0  0
   -0.5870    0.0000    0.0000 C   0  0  0  0  0  0  0  0  0  0  0  0
    0.5870    0.0000    0.0000 C   0  0  0  0  0  0  0  0  0  0  0  0
    1.9640    0.0000    0.0000 C   0  0  0  0  0  0  0  0  0  0  0  0
   -3.1380   -0.0000   -0.0000 C   0  0  0  0  0  0  0  0  0  0  0  0
    3.1380    0.0000    0.0000 C   0  0  0  0  0  0  0  0  0  0  0  0
   -4.1880   -0.0000   -0.0000 H   0  0  0  0  0  0  0  0  0  0  0  0
    4.1880   -0.0000   -0.0000 H   0  0  0  0  0  0  0  0  0  0  0  0
  1  5  3  0  0  0  0
  1  2  1  0  0  0  0
  2  3  3  0  0  0  0
  3  4  1  0  0  0  0
  4  6  3  0  0  0  0
  5  7  1  0  0  0  0
  6  8  1  0  0  0  0
M  END
