C13H28
 OpenBabel01061904013D

 41 40  0  0  0  0  0  0  0  0999 V2000
    7.4954   -0.3878   -0.0000 C   0  0  0  0  0  0  0  0  0  0  0  0
    6.2462    0.4955    0.0000 C   0  0  0  0  0  0  0  0  0  0  0  0
    4.9970   -0.3878   -0.0000 C   0  0  0  0  0  0  0  0  0  0  0  0
    3.7477    0.4955    0.0000 C   0  0  0  0  0  0  0  0  0  0  0  0
    2.4985   -0.3878   -0.0000 C   0  0  0  0  0  0  0  0  0  0  0  0
    1.2492    0.4955    0.0000 C   0  0  0  0  0  0  0  0  0  0  0  0
   -0.0000   -0.3878    0.0000 C   0  0  0  0  0  0  0  0  0  0  0  0
   -1.2492    0.4955   -0.0000 C   0  0  0  0  0  0  0  0  0  0  0  0
   -2.4985   -0.3878    0.0000 C   0  0  0  0  0  0  0  0  0  0  0  0
   -3.7477    0.4955   -0.0000 C   0  0  0  0  0  0  0  0  0  0  0  0
   -4.9970   -0.3878    0.0000 C   0  0  0  0  0  0  0  0  0  0  0  0
   -6.2462    0.4955   -0.0000 C   0  0  0  0  0  0  0  0  0  0  0  0
   -7.4954   -0.3878    0.0000 C   0  0  0  0  0  0  0  0  0  0  0  0
    8.3854    0.2415    0.0000 H   0  0  0  0  0  0  0  0  0  0  0  0
    7.4954   -1.0172    0.8900 H   0  0  0  0  0  0  0  0  0  0  0  0
    7.4954   -1.0172   -0.8900 H   0  0  0  0  0  0  0  0  0  0  0  0
    6.2462    1.1248    0.8900 H   0  0  0  0  0  0  0  0  0  0  0  0
    6.2462    1.1248   -0.8900 H   0  0  0  0  0  0  0  0  0  0  0  0
    4.9970   -1.0172   -0.8900 H   0  0  0  0  0  0  0  0  0  0  0  0
    4.9970   -1.0172    0.8900 H   0  0  0  0  0  0  0  0  0  0  0  0
    3.7477    1.1248    0.8900 H   0  0  0  0  0  0  0  0  0  0  0  0
    3.7477    1.1248   -0.8900 H   0  0  0  0  0  0  0  0  0  0  0  0
    2.4985   -1.0172   -0.8900 H   0  0  0  0  0  0  0  0  0  0  0  0
    2.4985   -1.0172    0.8900 H   0  0  0  0  0  0  0  0  0  0  0  0
    1.2492    1.1248    0.8900 H   0  0  0  0  0  0  0  0  0  0  0  0
    1.2492    1.1248   -0.8900 H   0  0  0  0  0  0  0  0  0  0  0  0
    0.0000   -1.0172   -0.8900 H   0  0  0  0  0  0  0  0  0  0  0  0
   -0.0000   -1.0172    0.8900 H   0  0  0  0  0  0  0  0  0  0  0  0
   -1.2492    1.1248    0.8900 H   0  0  0  0  0  0  0  0  0  0  0  0
   -1.2492    1.1248   -0.8900 H   0  0  0  0  0  0  0  0  0  0  0  0
   -2.4985   -1.0172   -0.8900 H   0  0  0  0  0  0  0  0  0  0  0  0
   -2.4985   -1.0172    0.8900 H   0  0  0  0  0  0  0  0  0  0  0  0
   -3.7477    1.1248    0.8900 H   0  0  0  0  0  0  0  0  0  0  0  0
   -3.7477    1.1248   -0.8900 H   0  0  0  0  0  0  0  0  0  0  0  0
   -4.9970   -1.0172   -0.8900 H   0  0  0  0  0  0  0  0  0  0  0  0
   -4.9970   -1.0172    0.8900 H   0  0  0  0  0  0  0  0  0  0  0  0
   -6.2462    1.1248    0.8900 H   0  0  0  0  0  0  0  0  0  0  0  0
   -6.2462    1.1248   -0.8900 H   0  0  0  0  0  0  0  0  0  0  0  0
   -7.4954   -1.0172   -0.8900 H   0  0  0  0  0  0  0  0  0  0  0  0
   -7.4954   -1.0172    0.8900 H   0  0  0  0  0  0  0  0  0  0  0  0
   -8.3854    0.2415   -0.0000 H   0  0  0  0  0  0  0  0  0  0  0  0
  1  2  1  0  0  0  0
  1 14  1  0  0  0  0
  1 15  1  0  0  0  0
  1 16  1  0  0  0  0
  2  3  1  0  0  0  0
  2 17  1  0  0  0  0
  2 18  1  0  0  0  0
  3  4  1  0  0  0  0
  3 19  1  0  0  0  0
  3 20  1  0  0  0  0
  4  5  1  0  0  0  0
  4 21  1  0  0  0  0
  4 22  1  0  0  0  0
  5  6  1  0  0  0  0
  5 23  1  0  0  0  0
  5 24  1  0  0  0  0
  6  7  1  0  0  0  0
  6 25  1  0  0  0  0
  6 26  1  0  0  0  0
  7  8  1  0  0  0  0
  7 27  1  0  0  0  0
  7 28  1  0  0  0  0
  8  9  1  0  0  0  0
  8 29  1  0  0  0  0
  8 30  1  0  0  0  0
  9 10  1  0  0  0  0
  9 31  1  0  0  0  0
  9 32  1  0  0  0  0
 10 11  1  0  0  0  0
 10 33  1  0  0  0  0
 10 34  1  0  0  0  0
 11 12  1  0  0  0  0
 11 35  1  0  0  0  0
 11 36  1  0  0  0  0
 12 13  1  0  0  0  0
 12 37  1  0  0  0  0
 12 38  1  0  0  0  0
 13 39  1  0  0  0  0
 13 40  1  0  0  0  0
 13 41  1  0  0  0  0
M  END
