C6H3N3O8
 OpenBabel01061904023D

 20 20  0  0  0  0  0  0  0  0999 V2000
    3.1533    0.7544    0.0392 N   0  3  0  0  0  0  0  0  0  0  0  0
    2.9771    0.3984    1.1906 O   0  0  0  0  0  0  0  0  0  0  0  0
    4.1696    1.3532   -0.2643 O   0  5  0  0  0  0  0  0  0  0  0  0
    2.1794    0.4669   -0.9477 O   0  0  0  0  0  0  0  0  0  0  0  0
    1.1021   -0.2078   -0.4787 C   0  0  0  0  0  0  0  0  0  0  0  0
   -0.0000    0.4886    0.0003 C   0  0  0  0  0  0  0  0  0  0  0  0
   -1.1019   -0.2075    0.4800 C   0  0  0  0  0  0  0  0  0  0  0  0
   -2.1795    0.4674    0.9479 O   0  0  0  0  0  0  0  0  0  0  0  0
   -3.1534    0.7531   -0.0395 N   0  3  0  0  0  0  0  0  0  0  0  0
   -2.9768    0.3956   -1.1904 O   0  0  0  0  0  0  0  0  0  0  0  0
   -4.1676    1.3564    0.2620 O   0  5  0  0  0  0  0  0  0  0  0  0
   -1.0979   -1.5999    0.4791 C   0  0  0  0  0  0  0  0  0  0  0  0
    0.0006   -2.2891    0.0023 C   0  0  0  0  0  0  0  0  0  0  0  0
    1.0961   -1.6001   -0.4815 C   0  0  0  0  0  0  0  0  0  0  0  0
   -0.0000    1.9688   -0.0001 N   0  3  0  0  0  0  0  0  0  0  0  0
   -0.4205    2.5776   -0.9676 O   0  0  0  0  0  0  0  0  0  0  0  0
    0.4206    2.5780    0.9671 O   0  5  0  0  0  0  0  0  0  0  0  0
   -1.9543   -2.1420    0.8520 H   0  0  0  0  0  0  0  0  0  0  0  0
    0.0008   -3.3691    0.0032 H   0  0  0  0  0  0  0  0  0  0  0  0
    1.9527   -2.1425   -0.8538 H   0  0  0  0  0  0  0  0  0  0  0  0
  1  2  2  0  0  0  0
  1  3  1  0  0  0  0
  1  4  1  0  0  0  0
  4  5  1  0  0  0  0
  5  6  1  0  0  0  0
  5 14  2  0  0  0  0
  6  7  2  0  0  0  0
  6 15  1  0  0  0  0
  7  8  1  0  0  0  0
  7 12  1  0  0  0  0
  8  9  1  0  0  0  0
  9 10  2  0  0  0  0
  9 11  1  0  0  0  0
 12 13  2  0  0  0  0
 12 18  1  0  0  0  0
 13 14  1  0  0  0  0
 13 19  1  0  0  0  0
 14 20  1  0  0  0  0
 15 16  2  0  0  0  0
 15 17  1  0  0  0  0
M  CHG  6   1   1   3  -1   9   1  11  -1  15   1  17  -1
M  END
