C6H3N3O6
 OpenBabel01061904013D

 18 18  0  0  0  0  0  0  0  0999 V2000
   -2.4790    0.6154   -0.0019 N   0  3  0  0  0  0  0  0  0  0  0  0
   -3.5338    0.0064   -0.0028 O   0  0  0  0  0  0  0  0  0  0  0  0
   -2.4790    1.8334    0.0036 O   0  5  0  0  0  0  0  0  0  0  0  0
   -1.1972   -0.1247   -0.0015 C   0  0  0  0  0  0  0  0  0  0  0  0
    0.0000    0.5664   -0.0005 C   0  0  0  0  0  0  0  0  0  0  0  0
    1.1971   -0.1247   -0.0002 C   0  0  0  0  0  0  0  0  0  0  0  0
    1.1971   -1.5071   -0.0003 C   0  0  0  0  0  0  0  0  0  0  0  0
    0.0000   -2.1982   -0.0004 C   0  0  0  0  0  0  0  0  0  0  0  0
   -1.1972   -1.5071    0.0036 C   0  0  0  0  0  0  0  0  0  0  0  0
    2.4790    0.6154   -0.0001 N   0  3  0  0  0  0  0  0  0  0  0  0
    3.5338    0.0064    0.0002 O   0  0  0  0  0  0  0  0  0  0  0  0
    2.4790    1.8334   -0.0004 O   0  5  0  0  0  0  0  0  0  0  0  0
    0.0000    2.0466   -0.0003 N   0  3  0  0  0  0  0  0  0  0  0  0
   -0.0008    2.6555    1.0545 O   0  0  0  0  0  0  0  0  0  0  0  0
    0.0008    2.6558   -1.0551 O   0  5  0  0  0  0  0  0  0  0  0  0
    2.1325   -2.0471   -0.0008 H   0  0  0  0  0  0  0  0  0  0  0  0
    0.0000   -3.2782   -0.0009 H   0  0  0  0  0  0  0  0  0  0  0  0
   -2.1325   -2.0471    0.0036 H   0  0  0  0  0  0  0  0  0  0  0  0
  1  2  2  0  0  0  0
  1  3  1  0  0  0  0
  1  4  1  0  0  0  0
  4  5  1  0  0  0  0
  4  9  2  0  0  0  0
  5  6  2  0  0  0  0
  5 13  1  0  0  0  0
  6  7  1  0  0  0  0
  6 10  1  0  0  0  0
  7  8  2  0  0  0  0
  7 16  1  0  0  0  0
  8  9  1  0  0  0  0
  8 17  1  0  0  0  0
  9 18  1  0  0  0  0
 10 11  2  0  0  0  0
 10 12  1  0  0  0  0
 13 14  2  0  0  0  0
 13 15  1  0  0  0  0
M  CHG  6   1   1   3  -1  10   1  12  -1  13   1  15  -1
M  END
