C3H6O3
 OpenBabel01061904023D

 12 12  0  0  0  0  0  0  0  0999 V2000
    1.2277   -1.3105    0.3015 O   0  0  0  0  0  0  0  0  0  0  0  0
    0.0000   -2.0286   -0.0824 O   0  0  0  0  0  0  0  0  0  0  0  0
   -1.2277   -1.3105    0.3015 O   0  0  0  0  0  0  0  0  0  0  0  0
   -1.2496    0.0473   -0.1526 C   0  0  0  0  0  0  0  0  0  0  0  0
   -0.0000    0.7685    0.3597 C   0  0  0  0  0  0  0  0  0  0  0  0
    1.2496    0.0473   -0.1526 C   0  0  0  0  0  0  0  0  0  0  0  0
   -1.2605    0.0669   -1.2423 H   0  0  0  0  0  0  0  0  0  0  0  0
   -2.1403    0.5452    0.2306 H   0  0  0  0  0  0  0  0  0  0  0  0
   -0.0000    1.7969   -0.0016 H   0  0  0  0  0  0  0  0  0  0  0  0
   -0.0000    0.7659    1.4497 H   0  0  0  0  0  0  0  0  0  0  0  0
    2.1403    0.5452    0.2306 H   0  0  0  0  0  0  0  0  0  0  0  0
    1.2605    0.0669   -1.2423 H   0  0  0  0  0  0  0  0  0  0  0  0
  1  2  1  0  0  0  0
  1  6  1  0  0  0  0
  2  3  1  0  0  0  0
  3  4  1  0  0  0  0
  4  5  1  0  0  0  0
  4  7  1  0  0  0  0
  4  8  1  0  0  0  0
  5  6  1  0  0  0  0
  5  9  1  0  0  0  0
  5 10  1  0  0  0  0
  6 11  1  0  0  0  0
  6 12  1  0  0  0  0
M  END
