C18H12
 OpenBabel01061904023D

 30 33  0  0  0  0  0  0  0  0999 V2000
   -1.6138   -2.3316   -0.0006 C   0  0  0  0  0  0  0  0  0  0  0  0
   -2.9845   -2.2033   -0.0005 C   0  0  0  0  0  0  0  0  0  0  0  0
   -3.5849   -0.9542   -0.0000 C   0  0  0  0  0  0  0  0  0  0  0  0
   -2.8288    0.1963    0.0004 C   0  0  0  0  0  0  0  0  0  0  0  0
   -1.4352    0.1103    0.0008 C   0  0  0  0  0  0  0  0  0  0  0  0
   -0.6251    1.2966    0.0008 C   0  0  0  0  0  0  0  0  0  0  0  0
   -1.2124    2.5633    0.0001 C   0  0  0  0  0  0  0  0  0  0  0  0
   -0.4160    3.6863   -0.0002 C   0  0  0  0  0  0  0  0  0  0  0  0
    0.9660    3.5817   -0.0003 C   0  0  0  0  0  0  0  0  0  0  0  0
    1.5844    2.3517    0.0002 C   0  0  0  0  0  0  0  0  0  0  0  0
    0.8132    1.1877    0.0009 C   0  0  0  0  0  0  0  0  0  0  0  0
    1.4355   -0.1069    0.0009 C   0  0  0  0  0  0  0  0  0  0  0  0
    2.8261   -0.2317   -0.0001 C   0  0  0  0  0  0  0  0  0  0  0  0
    3.4004   -1.4829   -0.0006 C   0  0  0  0  0  0  0  0  0  0  0  0
    2.6189   -2.6274   -0.0002 C   0  0  0  0  0  0  0  0  0  0  0  0
    1.2445   -2.5480    0.0008 C   0  0  0  0  0  0  0  0  0  0  0  0
    0.6220   -1.2981    0.0014 C   0  0  0  0  0  0  0  0  0  0  0  0
   -0.8103   -1.1897    0.0003 C   0  0  0  0  0  0  0  0  0  0  0  0
   -1.1615   -3.3123    0.0031 H   0  0  0  0  0  0  0  0  0  0  0  0
   -3.6015   -3.0898   -0.0012 H   0  0  0  0  0  0  0  0  0  0  0  0
   -4.6625   -0.8822   -0.0003 H   0  0  0  0  0  0  0  0  0  0  0  0
   -3.3120    1.1621    0.0001 H   0  0  0  0  0  0  0  0  0  0  0  0
   -2.2879    2.6619   -0.0005 H   0  0  0  0  0  0  0  0  0  0  0  0
   -0.8752    4.6638   -0.0007 H   0  0  0  0  0  0  0  0  0  0  0  0
    1.5671    4.4790   -0.0012 H   0  0  0  0  0  0  0  0  0  0  0  0
    2.6624    2.2873    0.0004 H   0  0  0  0  0  0  0  0  0  0  0  0
    3.4492    0.6504   -0.0007 H   0  0  0  0  0  0  0  0  0  0  0  0
    4.4766   -1.5739   -0.0017 H   0  0  0  0  0  0  0  0  0  0  0  0
    3.0955   -3.5966   -0.0010 H   0  0  0  0  0  0  0  0  0  0  0  0
    0.6497   -3.4494    0.0008 H   0  0  0  0  0  0  0  0  0  0  0  0
  1  2  2  0  0  0  0
  1 18  1  0  0  0  0
  1 19  1  0  0  0  0
  2  3  1  0  0  0  0
  2 20  1  0  0  0  0
  3  4  2  0  0  0  0
  3 21  1  0  0  0  0
  4  5  1  0  0  0  0
  4 22  1  0  0  0  0
  5  6  1  0  0  0  0
  5 18  2  0  0  0  0
  6  7  2  0  0  0  0
  6 11  1  0  0  0  0
  7  8  1  0  0  0  0
  7 23  1  0  0  0  0
  8  9  2  0  0  0  0
  8 24  1  0  0  0  0
  9 10  1  0  0  0  0
  9 25  1  0  0  0  0
 10 11  2  0  0  0  0
 10 26  1  0  0  0  0
 11 12  1  0  0  0  0
 12 13  2  0  0  0  0
 12 17  1  0  0  0  0
 13 14  1  0  0  0  0
 13 27  1  0  0  0  0
 14 15  2  0  0  0  0
 14 28  1  0  0  0  0
 15 16  1  0  0  0  0
 15 29  1  0  0  0  0
 16 17  2  0  0  0  0
 16 30  1  0  0  0  0
 17 18  1  0  0  0  0
M  END
