C24H38O5
 OpenBabel01061904023D

 67 70  0  0  0  0  0  0  0  0999 V2000
   -1.0954   -1.3336   -1.5996 C   0  0  0  0  0  0  0  0  0  0  0  0
   -1.8841    2.7623    0.3398 C   0  0  0  0  0  0  0  0  0  0  0  0
   -2.2725    1.5072   -1.7590 C   0  0  0  0  0  0  0  0  0  0  0  0
    1.5034   -1.2264   -2.4930 C   0  0  0  0  0  0  0  0  0  0  0  0
    6.4166   -1.5231    1.8125 C   0  0  0  0  0  0  0  0  0  0  0  0
   -6.6757   -1.2466    2.0262 C   0  0  0  0  0  0  0  0  0  0  0  0
    6.7112    1.3085   -0.0451 O   0  0  0  0  0  0  0  0  0  0  0  0
    0.4977    0.8547   -0.6645 C   0  0  0  0  0  0  0  0  0  0  0  0
   -2.0457   -1.5231    0.6737 C   0  0  0  0  0  0  0  0  0  0  0  0
   -4.5774    1.2898   -0.0392 C   0  0  0  0  0  0  0  0  0  0  0  0
    3.2724    0.3061   -1.6102 C   0  0  0  0  0  0  0  0  0  0  0  0
    4.1166    0.6541   -0.3808 C   0  0  0  0  0  0  0  0  0  0  0  0
   -5.6496    0.8620    0.9733 C   0  0  0  0  0  0  0  0  0  0  0  0
    7.4571    1.2785    2.0349 O   0  0  0  0  0  0  0  0  0  0  0  0
    6.6487    0.8290    1.0622 C   0  0  0  0  0  0  0  0  0  0  0  0
    1.3464   -0.3512   -0.1572 C   0  0  1  0  0  0  0  0  0  0  0  0
    4.8713   -0.5955    0.0822 C   0  0  1  0  0  0  0  0  0  0  0  0
   -5.5333   -0.5998    1.2854 C   0  0  0  0  0  0  0  0  0  0  0  0
    8.0725    1.9871    1.8018 H   0  0  0  0  0  0  0  0  0  0  0  0
    5.6632   -0.2739    1.3511 C   0  0  1  0  0  0  0  0  0  0  0  0
    0.4190   -1.4019    0.2042 O   0  0  0  0  0  0  0  0  0  0  0  0
    3.0511   -1.9504   -0.7805 O   0  0  0  0  0  0  0  0  0  0  0  0
    3.9294   -1.6370    0.3572 O   0  0  0  0  0  0  0  0  0  0  0  0
   -4.5232   -1.3492    0.9654 C   0  0  0  0  0  0  0  0  0  0  0  0
   -0.8087    0.5600    0.0907 C   0  0  1  0  0  0  0  0  0  0  0  0
   -3.3264   -0.8177    0.2270 C   0  0  1  0  0  0  0  0  0  0  0  0
   -3.2478    0.6894    0.4217 C   0  0  1  0  0  0  0  0  0  0  0  0
   -2.0441    1.3388   -0.2595 C   0  0  0  0  0  0  0  0  0  0  0  0
    2.3039   -0.8250   -1.2524 C   0  0  1  0  0  0  0  0  0  0  0  0
   -0.8991   -0.9565   -0.1349 C   0  0  1  0  0  0  0  0  0  0  0  0
   -3.5052   -1.0202   -0.8269 H   0  0  0  0  0  0  0  0  0  0  0  0
    1.9137   -0.0465    0.7246 H   0  0  0  0  0  0  0  0  0  0  0  0
   -3.1613    0.8807    1.5016 H   0  0  0  0  0  0  0  0  0  0  0  0
   -0.5991    0.7368    1.1802 H   0  0  0  0  0  0  0  0  0  0  0  0
    5.5555   -0.9194   -0.7021 H   0  0  0  0  0  0  0  0  0  0  0  0
    0.9393    1.7962   -0.3295 H   0  0  0  0  0  0  0  0  0  0  0  0
    0.3874    0.8401   -1.7401 H   0  0  0  0  0  0  0  0  0  0  0  0
    4.9779    0.0474    2.1354 H   0  0  0  0  0  0  0  0  0  0  0  0
   -1.8734   -1.3452    1.7375 H   0  0  0  0  0  0  0  0  0  0  0  0
   -2.1302   -2.5974    0.4958 H   0  0  0  0  0  0  0  0  0  0  0  0
   -4.5358   -2.3934    1.2363 H   0  0  0  0  0  0  0  0  0  0  0  0
   -4.8420    0.8958   -1.0213 H   0  0  0  0  0  0  0  0  0  0  0  0
   -4.5235    2.3739   -0.0716 H   0  0  0  0  0  0  0  0  0  0  0  0
    2.7073    1.1837   -1.9242 H   0  0  0  0  0  0  0  0  0  0  0  0
    3.9256   -0.0166   -2.4209 H   0  0  0  0  0  0  0  0  0  0  0  0
    4.8308    1.4360   -0.6390 H   0  0  0  0  0  0  0  0  0  0  0  0
    3.4659    1.0042    0.4205 H   0  0  0  0  0  0  0  0  0  0  0  0
   -5.5222    1.4362    1.8899 H   0  0  0  0  0  0  0  0  0  0  0  0
   -6.6347    1.0624    0.5544 H   0  0  0  0  0  0  0  0  0  0  0  0
   -0.4844   -0.6844   -2.2269 H   0  0  0  0  0  0  0  0  0  0  0  0
   -0.7968   -2.3709   -1.7509 H   0  0  0  0  0  0  0  0  0  0  0  0
   -2.1452   -1.2148   -1.8678 H   0  0  0  0  0  0  0  0  0  0  0  0
   -1.0005    3.2384   -0.0854 H   0  0  0  0  0  0  0  0  0  0  0  0
   -2.7664    3.3572    0.1038 H   0  0  0  0  0  0  0  0  0  0  0  0
   -1.7730    2.6907    1.4218 H   0  0  0  0  0  0  0  0  0  0  0  0
   -2.4851    0.5358   -2.2054 H   0  0  0  0  0  0  0  0  0  0  0  0
   -3.1170    2.1760   -1.9250 H   0  0  0  0  0  0  0  0  0  0  0  0
   -1.3786    1.9300   -2.2174 H   0  0  0  0  0  0  0  0  0  0  0  0
    0.9660   -0.3585   -2.8752 H   0  0  0  0  0  0  0  0  0  0  0  0
    2.1833   -1.5991   -3.2592 H   0  0  0  0  0  0  0  0  0  0  0  0
    0.7908   -2.0076   -2.2285 H   0  0  0  0  0  0  0  0  0  0  0  0
    7.1019   -1.8445    1.0281 H   0  0  0  0  0  0  0  0  0  0  0  0
    6.9808   -1.2940    2.7165 H   0  0  0  0  0  0  0  0  0  0  0  0
    5.7038   -2.3208    2.0214 H   0  0  0  0  0  0  0  0  0  0  0  0
   -6.4556   -2.3026    2.1829 H   0  0  0  0  0  0  0  0  0  0  0  0
   -6.8075   -0.7559    2.9905 H   0  0  0  0  0  0  0  0  0  0  0  0
   -7.5900   -1.1490    1.4409 H   0  0  0  0  0  0  0  0  0  0  0  0
  1 50  1  0  0  0  0
  1 51  1  0  0  0  0
  1 52  1  0  0  0  0
  2 28  1  0  0  0  0
  2 53  1  0  0  0  0
  2 54  1  0  0  0  0
  2 55  1  0  0  0  0
  3 28  1  0  0  0  0
  3 56  1  0  0  0  0
  3 57  1  0  0  0  0
  3 58  1  0  0  0  0
  4 59  1  0  0  0  0
  4 60  1  0  0  0  0
  4 61  1  0  0  0  0
  5 20  1  0  0  0  0
  5 62  1  0  0  0  0
  5 63  1  0  0  0  0
  5 64  1  0  0  0  0
  6 18  1  0  0  0  0
  6 65  1  0  0  0  0
  6 66  1  0  0  0  0
  6 67  1  0  0  0  0
  7 15  2  0  0  0  0
  8 25  1  0  0  0  0
  8 16  1  0  0  0  0
  8 36  1  0  0  0  0
  8 37  1  0  0  0  0
  9 26  1  0  0  0  0
  9 30  1  0  0  0  0
  9 39  1  0  0  0  0
  9 40  1  0  0  0  0
 10 27  1  0  0  0  0
 10 13  1  0  0  0  0
 10 42  1  0  0  0  0
 10 43  1  0  0  0  0
 11 29  1  0  0  0  0
 11 12  1  0  0  0  0
 11 44  1  0  0  0  0
 11 45  1  0  0  0  0
 12 17  1  0  0  0  0
 12 46  1  0  0  0  0
 12 47  1  0  0  0  0
 13 18  1  0  0  0  0
 13 48  1  0  0  0  0
 13 49  1  0  0  0  0
 14 15  1  0  0  0  0
 14 19  1  0  0  0  0
 15 20  1  0  0  0  0
 16 29  1  0  0  0  0
 16 21  1  0  0  0  0
 16 32  1  1  0  0  0
 17 20  1  0  0  0  0
 17 35  1  6  0  0  0
 17 23  1  0  0  0  0
 18 24  2  0  0  0  0
 20 38  1  1  0  0  0
 21 30  1  0  0  0  0
 22 29  1  0  0  0  0
 22 23  1  0  0  0  0
 24 26  1  0  0  0  0
 24 41  1  0  0  0  0
 25 30  1  0  0  0  0
 25 28  1  0  0  0  0
 25 34  1  1  0  0  0
 26 27  1  0  0  0  0
 26 31  1  6  0  0  0
 27 33  1  1  0  0  0
 27 28  1  0  0  0  0
 29  4  1  6  0  0  0
 30  1  1  6  0  0  0
M  END
