C19H26O4
 OpenBabel01061904033D

 49 49  0  0  0  0  0  0  0  0999 V2000
   -0.7735   -2.2309   -0.8229 C   0  0  0  0  0  0  0  0  0  0  0  0
    2.9129   -1.3047   -0.2933 C   0  0  0  0  0  0  0  0  0  0  0  0
    3.0791   -0.1170    0.6568 C   0  0  0  0  0  0  0  0  0  0  0  0
   -2.2358   -1.1368   -3.0012 C   0  0  0  0  0  0  0  0  0  0  0  0
   -4.0269   -0.3736    3.2204 C   0  0  0  0  0  0  0  0  0  0  0  0
   -4.6369    2.9843   -0.2197 C   0  0  0  0  0  0  0  0  0  0  0  0
    1.2949   -2.9192    0.9670 C   0  0  0  0  0  0  0  0  0  0  0  0
    3.3643    2.5082   -0.3341 C   0  0  0  0  0  0  0  0  0  0  0  0
    5.9437    2.3609    0.0379 C   0  0  0  0  0  0  0  0  0  0  0  0
   -1.5290   -1.2565    1.7461 O   0  0  0  0  0  0  0  0  0  0  0  0
   -4.2226    0.7743   -2.2801 O   0  0  0  0  0  0  0  0  0  0  0  0
    1.5403   -1.9011   -0.1167 C   0  0  0  0  0  0  0  0  0  0  0  0
    4.5801    1.7206    0.0813 C   0  0  0  0  0  0  0  0  0  0  0  0
   -3.4826    0.6100    2.3381 O   0  0  0  0  0  0  0  0  0  0  0  0
   -4.8743    1.6587    0.2583 O   0  0  0  0  0  0  0  0  0  0  0  0
   -1.8559   -1.2140   -0.5669 C   0  0  0  0  0  0  0  0  0  0  0  0
   -3.2088    0.2150    1.0684 C   0  0  0  0  0  0  0  0  0  0  0  0
   -3.9025    0.7383    0.0312 C   0  0  0  0  0  0  0  0  0  0  0  0
   -2.1533   -0.7852    0.8167 C   0  0  0  0  0  0  0  0  0  0  0  0
   -2.5425   -0.6967   -1.5930 C   0  0  0  0  0  0  0  0  0  0  0  0
   -3.6010    0.3063   -1.3473 C   0  0  0  0  0  0  0  0  0  0  0  0
    0.5605   -1.5347   -0.9052 C   0  0  0  0  0  0  0  0  0  0  0  0
    4.4517    0.4795    0.4801 C   0  0  0  0  0  0  0  0  0  0  0  0
   -0.7557   -2.9553   -0.0086 H   0  0  0  0  0  0  0  0  0  0  0  0
   -0.9734   -2.7455   -1.7627 H   0  0  0  0  0  0  0  0  0  0  0  0
   -2.8557   -1.9963   -3.2564 H   0  0  0  0  0  0  0  0  0  0  0  0
   -2.4460   -0.3196   -3.6912 H   0  0  0  0  0  0  0  0  0  0  0  0
   -1.1839   -1.4129   -3.0747 H   0  0  0  0  0  0  0  0  0  0  0  0
    0.7087   -0.7336   -1.6142 H   0  0  0  0  0  0  0  0  0  0  0  0
   -4.2898    0.0948    4.1689 H   0  0  0  0  0  0  0  0  0  0  0  0
   -4.9188   -0.8106    2.7714 H   0  0  0  0  0  0  0  0  0  0  0  0
   -3.2872   -1.1552    3.3938 H   0  0  0  0  0  0  0  0  0  0  0  0
   -3.7846    3.4133    0.3072 H   0  0  0  0  0  0  0  0  0  0  0  0
   -4.4249    2.9527   -1.2884 H   0  0  0  0  0  0  0  0  0  0  0  0
   -5.5200    3.5981   -0.0425 H   0  0  0  0  0  0  0  0  0  0  0  0
    3.0323   -0.9661   -1.3225 H   0  0  0  0  0  0  0  0  0  0  0  0
    3.6681   -2.0580   -0.0688 H   0  0  0  0  0  0  0  0  0  0  0  0
    1.3825   -3.9223    0.5497 H   0  0  0  0  0  0  0  0  0  0  0  0
    2.0312   -2.7901    1.7603 H   0  0  0  0  0  0  0  0  0  0  0  0
    0.2935   -2.7815    1.3748 H   0  0  0  0  0  0  0  0  0  0  0  0
    2.3239    0.6363    0.4323 H   0  0  0  0  0  0  0  0  0  0  0  0
    2.9597   -0.4556    1.6860 H   0  0  0  0  0  0  0  0  0  0  0  0
    5.3295   -0.1163    0.6824 H   0  0  0  0  0  0  0  0  0  0  0  0
    2.9093    2.9647    0.5449 H   0  0  0  0  0  0  0  0  0  0  0  0
    3.6590    3.2876   -1.0369 H   0  0  0  0  0  0  0  0  0  0  0  0
    2.6453    1.8421   -0.8109 H   0  0  0  0  0  0  0  0  0  0  0  0
    6.6929    1.6430    0.3716 H   0  0  0  0  0  0  0  0  0  0  0  0
    6.1671    2.6711   -0.9829 H   0  0  0  0  0  0  0  0  0  0  0  0
    5.9573    3.2315    0.6935 H   0  0  0  0  0  0  0  0  0  0  0  0
  1 16  1  0  0  0  0
  1 22  1  0  0  0  0
  1 24  1  0  0  0  0
  1 25  1  0  0  0  0
  2 12  1  0  0  0  0
  2  3  1  0  0  0  0
  2 36  1  0  0  0  0
  2 37  1  0  0  0  0
  3 23  1  0  0  0  0
  3 41  1  0  0  0  0
  3 42  1  0  0  0  0
  4 20  1  0  0  0  0
  4 26  1  0  0  0  0
  4 27  1  0  0  0  0
  4 28  1  0  0  0  0
  5 14  1  0  0  0  0
  5 30  1  0  0  0  0
  5 31  1  0  0  0  0
  5 32  1  0  0  0  0
  6 15  1  0  0  0  0
  6 33  1  0  0  0  0
  6 34  1  0  0  0  0
  6 35  1  0  0  0  0
  7 12  1  0  0  0  0
  7 38  1  0  0  0  0
  7 39  1  0  0  0  0
  7 40  1  0  0  0  0
  8 13  1  0  0  0  0
  8 44  1  0  0  0  0
  8 45  1  0  0  0  0
  8 46  1  0  0  0  0
  9 13  1  0  0  0  0
  9 47  1  0  0  0  0
  9 48  1  0  0  0  0
  9 49  1  0  0  0  0
 10 19  2  0  0  0  0
 11 21  2  0  0  0  0
 12 22  2  0  0  0  0
 13 23  2  0  0  0  0
 14 17  1  0  0  0  0
 15 18  1  0  0  0  0
 16 19  1  0  0  0  0
 16 20  2  0  0  0  0
 17 18  2  0  0  0  0
 17 19  1  0  0  0  0
 18 21  1  0  0  0  0
 20 21  1  0  0  0  0
 22 29  1  0  0  0  0
 23 43  1  0  0  0  0
M  END
