C4H4N2O2
 OpenBabel01061904033D

 12 12  0  0  0  0  0  0  0  0999 V2000
   -1.1979    0.6400    0.0003 N   0  0  0  0  0  0  0  0  0  0  0  0
   -1.1500   -0.7046    0.0004 C   0  0  0  0  0  0  0  0  0  0  0  0
   -2.1858   -1.3412    0.0001 O   0  0  0  0  0  0  0  0  0  0  0  0
    0.0285   -1.3549    0.0004 N   0  0  0  0  0  0  0  0  0  0  0  0
    1.1862   -0.6636    0.0003 C   0  0  0  0  0  0  0  0  0  0  0  0
    2.2529   -1.2512   -0.0001 O   0  0  0  0  0  0  0  0  0  0  0  0
    1.1502    0.7516    0.0002 C   0  0  0  0  0  0  0  0  0  0  0  0
   -0.0459    1.3784    0.0003 C   0  0  0  0  0  0  0  0  0  0  0  0
   -2.0570    1.0901   -0.0037 H   0  0  0  0  0  0  0  0  0  0  0  0
    0.0450   -2.3248    0.0008 H   0  0  0  0  0  0  0  0  0  0  0  0
    2.0670    1.3224    0.0005 H   0  0  0  0  0  0  0  0  0  0  0  0
   -0.0930    2.4573   -0.0001 H   0  0  0  0  0  0  0  0  0  0  0  0
  1  2  1  0  0  0  0
  1  8  1  0  0  0  0
  1  9  1  0  0  0  0
  2  3  2  0  0  0  0
  2  4  1  0  0  0  0
  4  5  1  0  0  0  0
  4 10  1  0  0  0  0
  5  6  2  0  0  0  0
  5  7  1  0  0  0  0
  7  8  2  0  0  0  0
  7 11  1  0  0  0  0
  8 12  1  0  0  0  0
M  END
