C9H12N2O6
 OpenBabel01061904043D

 29 30  0  0  0  0  0  0  0  0999 V2000
   -0.1016    0.4853   -0.5992 C   0  0  2  0  0  0  0  0  0  0  0  0
   -0.0325    1.1535   -1.4575 H   0  0  0  0  0  0  0  0  0  0  0  0
    0.5336    1.1393    0.6543 C   0  0  2  0  0  0  0  0  0  0  0  0
    0.1769    0.6602    1.5660 H   0  0  0  0  0  0  0  0  0  0  0  0
    0.2731    2.5441    0.6838 O   0  0  0  0  0  0  0  0  0  0  0  0
    2.0408    0.8606    0.4370 C   0  0  2  0  0  0  0  0  0  0  0  0
    2.5173    0.5849    1.3778 H   0  0  0  0  0  0  0  0  0  0  0  0
    2.6838    2.0029   -0.1321 O   0  0  0  0  0  0  0  0  0  0  0  0
    2.0677   -0.3238   -0.5485 C   0  0  1  0  0  0  0  0  0  0  0  0
    2.5525   -0.0224   -1.4771 H   0  0  0  0  0  0  0  0  0  0  0  0
    2.8214   -1.5011    0.0733 C   0  0  0  0  0  0  0  0  0  0  0  0
    2.9423   -2.5508   -0.8886 O   0  0  0  0  0  0  0  0  0  0  0  0
    0.7034   -0.6951   -0.8077 O   0  0  0  0  0  0  0  0  0  0  0  0
   -1.4973    0.1227   -0.3407 N   0  0  0  0  0  0  0  0  0  0  0  0
   -2.4795    0.7030   -1.0538 C   0  0  0  0  0  0  0  0  0  0  0  0
   -2.1973    1.5228   -1.9063 O   0  0  0  0  0  0  0  0  0  0  0  0
   -3.7702    0.3886   -0.8371 N   0  0  0  0  0  0  0  0  0  0  0  0
   -4.0998   -0.5187    0.1043 C   0  0  0  0  0  0  0  0  0  0  0  0
   -5.2673   -0.8041    0.3008 O   0  0  0  0  0  0  0  0  0  0  0  0
   -3.0760   -1.1369    0.8619 C   0  0  0  0  0  0  0  0  0  0  0  0
   -1.7893   -0.8070    0.6199 C   0  0  0  0  0  0  0  0  0  0  0  0
    0.6505    2.9980    1.4497 H   0  0  0  0  0  0  0  0  0  0  0  0
    3.6304    1.8837   -0.2896 H   0  0  0  0  0  0  0  0  0  0  0  0
    3.8146   -1.1745    0.3816 H   0  0  0  0  0  0  0  0  0  0  0  0
    2.2730   -1.8656    0.9419 H   0  0  0  0  0  0  0  0  0  0  0  0
    3.4108   -3.3313   -0.5623 H   0  0  0  0  0  0  0  0  0  0  0  0
   -4.4661    0.8167   -1.3600 H   0  0  0  0  0  0  0  0  0  0  0  0
   -3.3207   -1.8660    1.6202 H   0  0  0  0  0  0  0  0  0  0  0  0
   -0.9948   -1.2685    1.1876 H   0  0  0  0  0  0  0  0  0  0  0  0
  1  2  1  6  0  0  0
  1  3  1  0  0  0  0
  1 13  1  0  0  0  0
  1 14  1  0  0  0  0
  3  4  1  1  0  0  0
  3  5  1  0  0  0  0
  3  6  1  0  0  0  0
  5 22  1  0  0  0  0
  6  7  1  1  0  0  0
  6  8  1  0  0  0  0
  6  9  1  0  0  0  0
  8 23  1  0  0  0  0
  9 10  1  6  0  0  0
  9 11  1  0  0  0  0
  9 13  1  0  0  0  0
 11 12  1  0  0  0  0
 11 24  1  0  0  0  0
 11 25  1  0  0  0  0
 12 26  1  0  0  0  0
 14 15  1  0  0  0  0
 14 21  1  0  0  0  0
 15 16  2  0  0  0  0
 15 17  1  0  0  0  0
 17 18  1  0  0  0  0
 17 27  1  0  0  0  0
 18 19  2  0  0  0  0
 18 20  1  0  0  0  0
 20 21  2  0  0  0  0
 20 28  1  0  0  0  0
 21 29  1  0  0  0  0
M  END
