C11H14N2O9
 OpenBabel01061904043D

 36 37  0  0  0  0  0  0  0  0999 V2000
    0.8544   -0.3189    0.0769 C   0  0  2  0  0  0  0  0  0  0  0  0
    0.5020   -1.2918    0.4196 H   0  0  0  0  0  0  0  0  0  0  0  0
    1.6440   -0.4606   -1.2493 C   0  0  2  0  0  0  0  0  0  0  0  0
    1.6994    0.4937   -1.7730 H   0  0  0  0  0  0  0  0  0  0  0  0
    1.0630   -1.4646   -2.0840 O   0  0  0  0  0  0  0  0  0  0  0  0
    3.0422   -0.8982   -0.7492 C   0  0  2  0  0  0  0  0  0  0  0  0
    3.8251   -0.3967   -1.3181 H   0  0  0  0  0  0  0  0  0  0  0  0
    3.1864   -2.3167   -0.8452 O   0  0  0  0  0  0  0  0  0  0  0  0
    3.0740   -0.4485    0.7244 C   0  0  1  0  0  0  0  0  0  0  0  0
    3.1763   -1.3172    1.3749 H   0  0  0  0  0  0  0  0  0  0  0  0
    4.2441    0.5110    0.9504 C   0  0  0  0  0  0  0  0  0  0  0  0
    4.3361    0.8310    2.3400 O   0  0  0  0  0  0  0  0  0  0  0  0
    1.8305    0.2202    0.9940 O   0  0  0  0  0  0  0  0  0  0  0  0
   -0.2694    0.6063   -0.0882 N   0  0  0  0  0  0  0  0  0  0  0  0
   -0.0325    1.8947   -0.3944 C   0  0  0  0  0  0  0  0  0  0  0  0
    1.1139    2.2767   -0.5309 O   0  0  0  0  0  0  0  0  0  0  0  0
   -1.0449    2.7671   -0.5525 N   0  0  0  0  0  0  0  0  0  0  0  0
   -2.3224    2.3619   -0.4052 C   0  0  0  0  0  0  0  0  0  0  0  0
   -3.2381    3.1518   -0.5488 O   0  0  0  0  0  0  0  0  0  0  0  0
   -2.5902    1.0060   -0.0816 C   0  0  0  0  0  0  0  0  0  0  0  0
   -1.5548    0.1493    0.0656 C   0  0  0  0  0  0  0  0  0  0  0  0
   -3.8723    0.5729    0.0728 O   0  0  0  0  0  0  0  0  0  0  0  0
   -4.0565   -0.8064    0.3982 C   0  0  0  0  0  0  0  0  0  0  0  0
   -5.5290   -1.0995    0.5285 C   0  0  0  0  0  0  0  0  0  0  0  0
   -6.3377   -0.2178    0.3600 O   0  0  0  0  0  0  0  0  0  0  0  0
   -5.9421   -2.3401    0.8317 O   0  0  0  0  0  0  0  0  0  0  0  0
    1.5220   -1.5903   -2.9257 H   0  0  0  0  0  0  0  0  0  0  0  0
    4.0445   -2.6461   -0.5447 H   0  0  0  0  0  0  0  0  0  0  0  0
    5.1703    0.0378    0.6243 H   0  0  0  0  0  0  0  0  0  0  0  0
    4.0812    1.4239    0.3774 H   0  0  0  0  0  0  0  0  0  0  0  0
    5.0579    1.4368    2.5572 H   0  0  0  0  0  0  0  0  0  0  0  0
   -0.8546    3.6922   -0.7733 H   0  0  0  0  0  0  0  0  0  0  0  0
   -1.7372   -0.8863    0.3117 H   0  0  0  0  0  0  0  0  0  0  0  0
   -3.6312   -1.4259   -0.3914 H   0  0  0  0  0  0  0  0  0  0  0  0
   -3.5572   -1.0269    1.3417 H   0  0  0  0  0  0  0  0  0  0  0  0
   -6.8961   -2.4796    0.9045 H   0  0  0  0  0  0  0  0  0  0  0  0
  1  2  1  1  0  0  0
  1  3  1  0  0  0  0
  1 13  1  0  0  0  0
  1 14  1  0  0  0  0
  3  4  1  6  0  0  0
  3  5  1  0  0  0  0
  3  6  1  0  0  0  0
  5 27  1  0  0  0  0
  6  7  1  6  0  0  0
  6  8  1  0  0  0  0
  6  9  1  0  0  0  0
  8 28  1  0  0  0  0
  9 10  1  1  0  0  0
  9 11  1  0  0  0  0
  9 13  1  0  0  0  0
 11 12  1  0  0  0  0
 11 29  1  0  0  0  0
 11 30  1  0  0  0  0
 12 31  1  0  0  0  0
 14 15  1  0  0  0  0
 14 21  1  0  0  0  0
 15 16  2  0  0  0  0
 15 17  1  0  0  0  0
 17 18  1  0  0  0  0
 17 32  1  0  0  0  0
 18 19  2  0  0  0  0
 18 20  1  0  0  0  0
 20 21  2  0  0  0  0
 20 22  1  0  0  0  0
 21 33  1  0  0  0  0
 22 23  1  0  0  0  0
 23 24  1  0  0  0  0
 23 34  1  0  0  0  0
 23 35  1  0  0  0  0
 24 25  2  0  0  0  0
 24 26  1  0  0  0  0
 26 36  1  0  0  0  0
M  END
