C31H46O2
 OpenBabel01061904073D

 79 80  0  0  0  0  0  0  0  0999 V2000
   -6.3231    2.7785    1.7179 C   0  0  0  0  0  0  0  0  0  0  0  0
   -7.6875    3.6421   -0.5558 C   0  0  0  0  0  0  0  0  0  0  0  0
   -6.4152    4.1311    1.4237 C   0  0  0  0  0  0  0  0  0  0  0  0
   -7.0912    4.5588    0.2977 C   0  0  0  0  0  0  0  0  0  0  0  0
   -6.8479   -2.0171    0.2420 C   0  0  0  0  0  0  0  0  0  0  0  0
   -3.1803   -3.1247    0.0123 C   0  0  0  0  0  0  0  0  0  0  0  0
   -2.2148   -1.9771    0.3154 C   0  0  0  0  0  0  0  0  0  0  0  0
   -0.8251   -2.3243   -0.2225 C   0  0  0  0  0  0  0  0  0  0  0  0
    1.5551   -1.5746   -0.3449 C   0  0  0  0  0  0  0  0  0  0  0  0
    2.5396   -0.4798    0.0709 C   0  0  0  0  0  0  0  0  0  0  0  0
    3.9544   -0.8777   -0.3546 C   0  0  0  0  0  0  0  0  0  0  0  0
    6.3666   -0.2352   -0.2516 C   0  0  0  0  0  0  0  0  0  0  0  0
    7.3580    0.8036    0.2766 C   0  0  0  0  0  0  0  0  0  0  0  0
    8.7858    0.3512   -0.0362 C   0  0  0  0  0  0  0  0  0  0  0  0
   -8.2370   -1.1383   -2.0721 C   0  0  0  0  0  0  0  0  0  0  0  0
   -4.8922   -3.0663    1.9818 C   0  0  0  0  0  0  0  0  0  0  0  0
   -0.2924    0.0713   -0.6915 C   0  0  0  0  0  0  0  0  0  0  0  0
    4.6299    1.5011   -0.7115 C   0  0  0  0  0  0  0  0  0  0  0  0
   11.2056    0.8800    0.2911 C   0  0  0  0  0  0  0  0  0  0  0  0
    9.5930    2.7041   -0.2695 C   0  0  0  0  0  0  0  0  0  0  0  0
   -6.4702    0.0013    2.2409 O   0  0  0  0  0  0  0  0  0  0  0  0
   -9.0219    1.6171   -2.0140 O   0  0  0  0  0  0  0  0  0  0  0  0
   -4.5490   -2.7828    0.5420 C   0  0  0  0  0  0  0  0  0  0  0  0
   -6.8360    0.3985    1.1527 C   0  0  0  0  0  0  0  0  0  0  0  0
   -8.2248    1.2777   -1.1623 C   0  0  0  0  0  0  0  0  0  0  0  0
   -7.2081   -0.5614    0.0931 C   0  0  0  0  0  0  0  0  0  0  0  0
   -7.8644   -0.1459   -1.0009 C   0  0  0  0  0  0  0  0  0  0  0  0
   -6.9146    1.8494    0.8730 C   0  0  0  0  0  0  0  0  0  0  0  0
   -7.6031    2.2853   -0.2748 C   0  0  0  0  0  0  0  0  0  0  0  0
    0.1403   -1.1767    0.0806 C   0  0  1  0  0  0  0  0  0  0  0  0
    4.9389    0.2172    0.0612 C   0  0  1  0  0  0  0  0  0  0  0  0
    9.7772    1.3899    0.4920 C   0  0  0  0  0  0  0  0  0  0  0  0
   -5.4406   -2.2392   -0.2490 C   0  0  0  0  0  0  0  0  0  0  0  0
   -5.7899    2.4497    2.5976 H   0  0  0  0  0  0  0  0  0  0  0  0
   -8.2142    3.9823   -1.4351 H   0  0  0  0  0  0  0  0  0  0  0  0
   -5.9553    4.8550    2.0801 H   0  0  0  0  0  0  0  0  0  0  0  0
   -7.1557    5.6147    0.0800 H   0  0  0  0  0  0  0  0  0  0  0  0
   -6.9159   -2.3027    1.2917 H   0  0  0  0  0  0  0  0  0  0  0  0
   -7.5375   -2.6238   -0.3450 H   0  0  0  0  0  0  0  0  0  0  0  0
   -8.7610   -0.6239   -2.8776 H   0  0  0  0  0  0  0  0  0  0  0  0
   -7.3336   -1.6043   -2.4657 H   0  0  0  0  0  0  0  0  0  0  0  0
   -8.8858   -1.9045   -1.6477 H   0  0  0  0  0  0  0  0  0  0  0  0
   -5.1670   -1.9501   -1.2530 H   0  0  0  0  0  0  0  0  0  0  0  0
   -3.2356   -3.2779   -1.0655 H   0  0  0  0  0  0  0  0  0  0  0  0
   -2.8227   -4.0364    0.4909 H   0  0  0  0  0  0  0  0  0  0  0  0
   -5.3974   -4.0295    2.0520 H   0  0  0  0  0  0  0  0  0  0  0  0
   -3.9781   -3.0913    2.5750 H   0  0  0  0  0  0  0  0  0  0  0  0
   -5.5492   -2.2829    2.3597 H   0  0  0  0  0  0  0  0  0  0  0  0
   -2.5724   -1.0655   -0.1633 H   0  0  0  0  0  0  0  0  0  0  0  0
   -2.1594   -1.8240    1.3931 H   0  0  0  0  0  0  0  0  0  0  0  0
   -0.4676   -3.2359    0.2562 H   0  0  0  0  0  0  0  0  0  0  0  0
   -0.8805   -2.4774   -1.3003 H   0  0  0  0  0  0  0  0  0  0  0  0
    0.1286   -0.9648    1.1497 H   0  0  0  0  0  0  0  0  0  0  0  0
    1.5872   -1.7002   -1.4272 H   0  0  0  0  0  0  0  0  0  0  0  0
    1.8295   -2.5125    0.1380 H   0  0  0  0  0  0  0  0  0  0  0  0
   -0.2807   -0.1406   -1.7606 H   0  0  0  0  0  0  0  0  0  0  0  0
   -1.3003    0.3548   -0.3884 H   0  0  0  0  0  0  0  0  0  0  0  0
    0.3954    0.8888   -0.4756 H   0  0  0  0  0  0  0  0  0  0  0  0
    2.2652    0.4581   -0.4120 H   0  0  0  0  0  0  0  0  0  0  0  0
    2.5075   -0.3541    1.1531 H   0  0  0  0  0  0  0  0  0  0  0  0
    4.2288   -1.8155    0.1283 H   0  0  0  0  0  0  0  0  0  0  0  0
    3.9865   -1.0033   -1.4369 H   0  0  0  0  0  0  0  0  0  0  0  0
    4.8433    0.4048    1.1306 H   0  0  0  0  0  0  0  0  0  0  0  0
    6.4874   -0.3372   -1.3301 H   0  0  0  0  0  0  0  0  0  0  0  0
    6.5567   -1.1955    0.2277 H   0  0  0  0  0  0  0  0  0  0  0  0
    3.6128    1.8234   -0.4886 H   0  0  0  0  0  0  0  0  0  0  0  0
    5.3313    2.2811   -0.4153 H   0  0  0  0  0  0  0  0  0  0  0  0
    4.7255    1.3135   -1.7809 H   0  0  0  0  0  0  0  0  0  0  0  0
    7.1679    1.7639   -0.2028 H   0  0  0  0  0  0  0  0  0  0  0  0
    7.2373    0.9056    1.3550 H   0  0  0  0  0  0  0  0  0  0  0  0
    8.9758   -0.6091    0.4431 H   0  0  0  0  0  0  0  0  0  0  0  0
    8.9065    0.2492   -1.1147 H   0  0  0  0  0  0  0  0  0  0  0  0
    9.5970    1.5570    1.5539 H   0  0  0  0  0  0  0  0  0  0  0  0
   11.3857    0.7129   -0.7709 H   0  0  0  0  0  0  0  0  0  0  0  0
   11.9119    1.6200    0.6674 H   0  0  0  0  0  0  0  0  0  0  0  0
   11.3368   -0.0563    0.8336 H   0  0  0  0  0  0  0  0  0  0  0  0
    9.7731    2.5370   -1.3315 H   0  0  0  0  0  0  0  0  0  0  0  0
    8.5753    3.0674   -0.1264 H   0  0  0  0  0  0  0  0  0  0  0  0
   10.2993    3.4442    0.1068 H   0  0  0  0  0  0  0  0  0  0  0  0
  1 28  2  0  0  0  0
  1  3  1  0  0  0  0
  1 34  1  0  0  0  0
  2 29  2  0  0  0  0
  2  4  1  0  0  0  0
  2 35  1  0  0  0  0
  3  4  2  0  0  0  0
  3 36  1  0  0  0  0
  4 37  1  0  0  0  0
  5 26  1  0  0  0  0
  5 33  1  0  0  0  0
  5 38  1  0  0  0  0
  5 39  1  0  0  0  0
  6 23  1  0  0  0  0
  6  7  1  0  0  0  0
  6 44  1  0  0  0  0
  6 45  1  0  0  0  0
  7  8  1  0  0  0  0
  7 49  1  0  0  0  0
  7 50  1  0  0  0  0
  8 30  1  0  0  0  0
  8 51  1  0  0  0  0
  8 52  1  0  0  0  0
  9 30  1  0  0  0  0
  9 10  1  0  0  0  0
  9 54  1  0  0  0  0
  9 55  1  0  0  0  0
 10 11  1  0  0  0  0
 10 59  1  0  0  0  0
 10 60  1  0  0  0  0
 11 31  1  0  0  0  0
 11 61  1  0  0  0  0
 11 62  1  0  0  0  0
 12 31  1  0  0  0  0
 12 13  1  0  0  0  0
 12 64  1  0  0  0  0
 12 65  1  0  0  0  0
 13 14  1  0  0  0  0
 13 69  1  0  0  0  0
 13 70  1  0  0  0  0
 14 32  1  0  0  0  0
 14 71  1  0  0  0  0
 14 72  1  0  0  0  0
 15 27  1  0  0  0  0
 15 40  1  0  0  0  0
 15 41  1  0  0  0  0
 15 42  1  0  0  0  0
 16 23  1  0  0  0  0
 16 46  1  0  0  0  0
 16 47  1  0  0  0  0
 16 48  1  0  0  0  0
 17 30  1  0  0  0  0
 17 56  1  0  0  0  0
 17 57  1  0  0  0  0
 17 58  1  0  0  0  0
 18 31  1  0  0  0  0
 18 66  1  0  0  0  0
 18 67  1  0  0  0  0
 18 68  1  0  0  0  0
 19 32  1  0  0  0  0
 19 74  1  0  0  0  0
 19 75  1  0  0  0  0
 19 76  1  0  0  0  0
 20 32  1  0  0  0  0
 20 77  1  0  0  0  0
 20 78  1  0  0  0  0
 20 79  1  0  0  0  0
 21 24  2  0  0  0  0
 22 25  2  0  0  0  0
 23 33  2  0  0  0  0
 24 28  1  0  0  0  0
 24 26  1  0  0  0  0
 25 29  1  0  0  0  0
 25 27  1  0  0  0  0
 26 27  2  0  0  0  0
 28 29  1  0  0  0  0
 30 53  1  1  0  0  0
 31 63  1  1  0  0  0
 32 73  1  0  0  0  0
 33 43  1  0  0  0  0
M  END
