C29H50O2
 OpenBabel01061904073D

 81 82  0  0  0  0  0  0  0  0999 V2000
   -4.4979    1.5523    0.0487 C   0  0  2  0  0  0  0  0  0  0  0  0
    0.3800    0.4864    0.2483 C   0  0  1  0  0  0  0  0  0  0  0  0
    5.3161   -0.2671    0.0578 C   0  0  1  0  0  0  0  0  0  0  0  0
   -3.1593    1.9398    0.6804 C   0  0  0  0  0  0  0  0  0  0  0  0
   -2.0590    1.0194    0.1485 C   0  0  0  0  0  0  0  0  0  0  0  0
   -0.7204    1.4068    0.7802 C   0  0  0  0  0  0  0  0  0  0  0  0
    1.7362    0.9514    0.7825 C   0  0  0  0  0  0  0  0  0  0  0  0
    2.8480    0.1097    0.1530 C   0  0  0  0  0  0  0  0  0  0  0  0
    4.2043    0.5746    0.6872 C   0  0  0  0  0  0  0  0  0  0  0  0
    6.6775    0.2775    0.4947 C   0  0  0  0  0  0  0  0  0  0  0  0
    7.7883   -0.4839   -0.2316 C   0  0  0  0  0  0  0  0  0  0  0  0
    9.1497    0.0607    0.2053 C   0  0  0  0  0  0  0  0  0  0  0  0
   -5.3073   -2.5108    0.6422 C   0  0  0  0  0  0  0  0  0  0  0  0
   -9.5116    1.1947   -0.7671 C   0  0  0  0  0  0  0  0  0  0  0  0
   -4.3768    1.5856   -1.4762 C   0  0  0  0  0  0  0  0  0  0  0  0
   -7.9637   -3.4922    0.0926 C   0  0  0  0  0  0  0  0  0  0  0  0
    0.1137   -0.9473    0.7114 C   0  0  0  0  0  0  0  0  0  0  0  0
    5.1772   -1.7203    0.5160 C   0  0  0  0  0  0  0  0  0  0  0  0
   10.1746   -0.4187   -2.0224 C   0  0  0  0  0  0  0  0  0  0  0  0
   11.6217   -0.2431    0.0068 C   0  0  0  0  0  0  0  0  0  0  0  0
  -10.0919   -1.8079   -1.5140 H   0  0  0  0  0  0  0  0  0  0  0  0
   -6.4041   -1.5448    0.2747 C   0  0  0  0  0  0  0  0  0  0  0  0
   -8.4139    0.2297   -0.4001 C   0  0  0  0  0  0  0  0  0  0  0  0
   -7.6744   -2.0154    0.0122 C   0  0  0  0  0  0  0  0  0  0  0  0
   -8.6842   -1.1275   -0.3269 C   0  0  0  0  0  0  0  0  0  0  0  0
   -6.8833    2.1855   -0.2328 C   0  0  0  0  0  0  0  0  0  0  0  0
   -5.5867    2.5330    0.5028 C   0  0  0  0  0  0  0  0  0  0  0  0
   -9.9376   -1.5874   -0.5852 O   0  0  0  0  0  0  0  0  0  0  0  0
   -6.1315   -0.1829    0.2020 C   0  0  0  0  0  0  0  0  0  0  0  0
   -7.1393    0.7027   -0.1379 C   0  0  0  0  0  0  0  0  0  0  0  0
   10.2605   -0.7006   -0.5210 C   0  0  0  0  0  0  0  0  0  0  0  0
   -4.8683    0.2400    0.4733 O   0  0  0  0  0  0  0  0  0  0  0  0
   -7.7136    2.7267    0.2208 H   0  0  0  0  0  0  0  0  0  0  0  0
   -6.7939    2.4718   -1.2807 H   0  0  0  0  0  0  0  0  0  0  0  0
   -5.2862   -2.6420    1.7240 H   0  0  0  0  0  0  0  0  0  0  0  0
   -5.4941   -3.4719    0.1632 H   0  0  0  0  0  0  0  0  0  0  0  0
   -4.3484   -2.1171    0.3051 H   0  0  0  0  0  0  0  0  0  0  0  0
   -5.7385    2.4411    1.5783 H   0  0  0  0  0  0  0  0  0  0  0  0
   -5.2878    3.5525    0.2591 H   0  0  0  0  0  0  0  0  0  0  0  0
   -9.5340    1.3252   -1.8490 H   0  0  0  0  0  0  0  0  0  0  0  0
  -10.4699    0.8007   -0.4288 H   0  0  0  0  0  0  0  0  0  0  0  0
   -9.3249    2.1563   -0.2889 H   0  0  0  0  0  0  0  0  0  0  0  0
   -2.9231    2.9731    0.4262 H   0  0  0  0  0  0  0  0  0  0  0  0
   -3.2259    1.8382    1.7636 H   0  0  0  0  0  0  0  0  0  0  0  0
   -5.3345    1.3181   -1.9226 H   0  0  0  0  0  0  0  0  0  0  0  0
   -4.0941    2.5884   -1.7964 H   0  0  0  0  0  0  0  0  0  0  0  0
   -3.6155    0.8740   -1.7958 H   0  0  0  0  0  0  0  0  0  0  0  0
   -8.2763   -3.7466    1.1053 H   0  0  0  0  0  0  0  0  0  0  0  0
   -8.7597   -3.7452   -0.6078 H   0  0  0  0  0  0  0  0  0  0  0  0
   -7.0642   -4.0530   -0.1617 H   0  0  0  0  0  0  0  0  0  0  0  0
   -2.2952   -0.0139    0.4027 H   0  0  0  0  0  0  0  0  0  0  0  0
   -1.9924    1.1209   -0.9347 H   0  0  0  0  0  0  0  0  0  0  0  0
   -0.7869    1.3053    1.8634 H   0  0  0  0  0  0  0  0  0  0  0  0
   -0.4842    2.4401    0.5260 H   0  0  0  0  0  0  0  0  0  0  0  0
    0.3874    0.5209   -0.8411 H   0  0  0  0  0  0  0  0  0  0  0  0
    1.8866    2.0006    0.5282 H   0  0  0  0  0  0  0  0  0  0  0  0
    1.7600    0.8331    1.8658 H   0  0  0  0  0  0  0  0  0  0  0  0
   -0.8525   -1.2785    0.3309 H   0  0  0  0  0  0  0  0  0  0  0  0
    0.8977   -1.6030    0.3325 H   0  0  0  0  0  0  0  0  0  0  0  0
    0.1063   -0.9818    1.8009 H   0  0  0  0  0  0  0  0  0  0  0  0
    2.6977   -0.9395    0.4073 H   0  0  0  0  0  0  0  0  0  0  0  0
    2.8243    0.2280   -0.9303 H   0  0  0  0  0  0  0  0  0  0  0  0
    4.2280    0.4563    1.7705 H   0  0  0  0  0  0  0  0  0  0  0  0
    4.3546    1.6238    0.4329 H   0  0  0  0  0  0  0  0  0  0  0  0
    5.2373   -0.2195   -1.0283 H   0  0  0  0  0  0  0  0  0  0  0  0
    6.7415    1.3371    0.2471 H   0  0  0  0  0  0  0  0  0  0  0  0
    6.7922    0.1483    1.5709 H   0  0  0  0  0  0  0  0  0  0  0  0
    4.2073   -2.1082    0.2047 H   0  0  0  0  0  0  0  0  0  0  0  0
    5.9693   -2.3199    0.0675 H   0  0  0  0  0  0  0  0  0  0  0  0
    5.2561   -1.7679    1.6021 H   0  0  0  0  0  0  0  0  0  0  0  0
    7.7244   -1.5435    0.0160 H   0  0  0  0  0  0  0  0  0  0  0  0
    7.6736   -0.3546   -1.3078 H   0  0  0  0  0  0  0  0  0  0  0  0
    9.2136    1.1203   -0.0423 H   0  0  0  0  0  0  0  0  0  0  0  0
    9.2644   -0.0685    1.2815 H   0  0  0  0  0  0  0  0  0  0  0  0
   10.1432   -1.7699   -0.3449 H   0  0  0  0  0  0  0  0  0  0  0  0
   10.2918    0.6506   -2.1985 H   0  0  0  0  0  0  0  0  0  0  0  0
   10.9659   -0.9611   -2.5398 H   0  0  0  0  0  0  0  0  0  0  0  0
    9.2048   -0.7446   -2.3984 H   0  0  0  0  0  0  0  0  0  0  0  0
   11.6829   -0.4439    1.0764 H   0  0  0  0  0  0  0  0  0  0  0  0
   12.4130   -0.7854   -0.5106 H   0  0  0  0  0  0  0  0  0  0  0  0
   11.7390    0.8262   -0.1694 H   0  0  0  0  0  0  0  0  0  0  0  0
  1 32  1  0  0  0  0
  1  4  1  1  0  0  0
  1 15  1  0  0  0  0
  1 27  1  0  0  0  0
  2  6  1  0  0  0  0
  2  7  1  0  0  0  0
  2 17  1  0  0  0  0
  2 55  1  6  0  0  0
  3  9  1  0  0  0  0
  3 10  1  0  0  0  0
  3 18  1  0  0  0  0
  3 65  1  6  0  0  0
  4  5  1  0  0  0  0
  4 43  1  0  0  0  0
  4 44  1  0  0  0  0
  5  6  1  0  0  0  0
  5 51  1  0  0  0  0
  5 52  1  0  0  0  0
  6 53  1  0  0  0  0
  6 54  1  0  0  0  0
  7  8  1  0  0  0  0
  7 56  1  0  0  0  0
  7 57  1  0  0  0  0
  8  9  1  0  0  0  0
  8 61  1  0  0  0  0
  8 62  1  0  0  0  0
  9 63  1  0  0  0  0
  9 64  1  0  0  0  0
 10 11  1  0  0  0  0
 10 66  1  0  0  0  0
 10 67  1  0  0  0  0
 11 12  1  0  0  0  0
 11 71  1  0  0  0  0
 11 72  1  0  0  0  0
 12 31  1  0  0  0  0
 12 73  1  0  0  0  0
 12 74  1  0  0  0  0
 13 22  1  0  0  0  0
 13 35  1  0  0  0  0
 13 36  1  0  0  0  0
 13 37  1  0  0  0  0
 14 23  1  0  0  0  0
 14 40  1  0  0  0  0
 14 41  1  0  0  0  0
 14 42  1  0  0  0  0
 15 45  1  0  0  0  0
 15 46  1  0  0  0  0
 15 47  1  0  0  0  0
 16 24  1  0  0  0  0
 16 48  1  0  0  0  0
 16 49  1  0  0  0  0
 16 50  1  0  0  0  0
 17 58  1  0  0  0  0
 17 59  1  0  0  0  0
 17 60  1  0  0  0  0
 18 68  1  0  0  0  0
 18 69  1  0  0  0  0
 18 70  1  0  0  0  0
 19 31  1  0  0  0  0
 19 76  1  0  0  0  0
 19 77  1  0  0  0  0
 19 78  1  0  0  0  0
 20 31  1  0  0  0  0
 20 79  1  0  0  0  0
 20 80  1  0  0  0  0
 20 81  1  0  0  0  0
 21 28  1  0  0  0  0
 22 29  2  0  0  0  0
 22 24  1  0  0  0  0
 23 30  2  0  0  0  0
 23 25  1  0  0  0  0
 24 25  2  0  0  0  0
 25 28  1  0  0  0  0
 26 30  1  0  0  0  0
 26 27  1  0  0  0  0
 26 33  1  0  0  0  0
 26 34  1  0  0  0  0
 27 38  1  0  0  0  0
 27 39  1  0  0  0  0
 29 30  1  0  0  0  0
 29 32  1  0  0  0  0
 31 75  1  0  0  0  0
M  END
