C27H44O
 OpenBabel01061904073D

 72 74  0  0  0  0  0  0  0  0999 V2000
    0.3463   -1.6161    0.4985 C   0  0  2  0  0  0  0  0  0  0  0  0
   -0.7708   -1.1791    1.4880 C   0  0  1  0  0  0  0  0  0  0  0  0
    1.6129   -1.0741    1.1427 C   0  0  1  0  0  0  0  0  0  0  0  0
    2.6419   -0.7122    0.0699 C   0  0  1  0  0  0  0  0  0  0  0  0
   -6.0941    2.2091    0.7482 C   0  0  2  0  0  0  0  0  0  0  0  0
    3.8448   -0.0314    0.7260 C   0  0  0  0  0  0  0  0  0  0  0  0
    4.8163    0.4420   -0.3571 C   0  0  0  0  0  0  0  0  0  0  0  0
    6.0191    1.1228    0.2990 C   0  0  0  0  0  0  0  0  0  0  0  0
    0.1267   -0.9210   -0.8467 C   0  0  0  0  0  0  0  0  0  0  0  0
    3.1028   -1.9843   -0.6445 C   0  0  0  0  0  0  0  0  0  0  0  0
    6.3222    2.6822   -1.6294 C   0  0  0  0  0  0  0  0  0  0  0  0
    8.2499    2.1645   -0.1266 C   0  0  0  0  0  0  0  0  0  0  0  0
   -5.1685    3.6862    1.7790 H   0  0  0  0  0  0  0  0  0  0  0  0
   -0.3822    0.2772    1.7529 C   0  0  0  0  0  0  0  0  0  0  0  0
    1.1628    0.1975    1.9084 C   0  0  0  0  0  0  0  0  0  0  0  0
    0.2240   -3.1090    0.3016 C   0  0  0  0  0  0  0  0  0  0  0  0
   -2.2998   -2.8406    0.2992 C   0  0  0  0  0  0  0  0  0  0  0  0
   -1.0856   -3.3705   -0.4611 C   0  0  0  0  0  0  0  0  0  0  0  0
   -4.8228    1.6907    0.0683 C   0  0  0  0  0  0  0  0  0  0  0  0
   -7.5902    0.6729   -0.5460 C   0  0  0  0  0  0  0  0  0  0  0  0
   -7.2696    2.1367   -0.2271 C   0  0  0  0  0  0  0  0  0  0  0  0
   -5.8966    3.5648    1.1543 O   0  0  0  0  0  0  0  0  0  0  0  0
   -2.0629   -1.4102    0.7624 C   0  0  0  0  0  0  0  0  0  0  0  0
   -5.0767    0.2720   -0.4009 C   0  0  0  0  0  0  0  0  0  0  0  0
   -6.3451    0.0250   -1.1180 C   0  0  0  0  0  0  0  0  0  0  0  0
    6.9907    1.5962   -0.7840 C   0  0  0  0  0  0  0  0  0  0  0  0
   -2.9413   -0.4327    0.5394 C   0  0  0  0  0  0  0  0  0  0  0  0
   -4.1877   -0.7172   -0.1753 C   0  0  0  0  0  0  0  0  0  0  0  0
   -6.3919   -0.7313   -2.2146 C   0  0  0  0  0  0  0  0  0  0  0  0
   -0.7323   -1.7694    2.4036 H   0  0  0  0  0  0  0  0  0  0  0  0
    2.0283   -1.8060    1.8354 H   0  0  0  0  0  0  0  0  0  0  0  0
   -0.6532    0.9092    0.9071 H   0  0  0  0  0  0  0  0  0  0  0  0
   -0.8447    0.6395    2.6710 H   0  0  0  0  0  0  0  0  0  0  0  0
    1.4292    0.1140    2.9620 H   0  0  0  0  0  0  0  0  0  0  0  0
    1.6290    1.0813    1.4729 H   0  0  0  0  0  0  0  0  0  0  0  0
    1.0701   -3.4762   -0.2793 H   0  0  0  0  0  0  0  0  0  0  0  0
    0.1942   -3.6087    1.2699 H   0  0  0  0  0  0  0  0  0  0  0  0
    2.1897   -0.0332   -0.6530 H   0  0  0  0  0  0  0  0  0  0  0  0
    0.2822    0.1516   -0.7311 H   0  0  0  0  0  0  0  0  0  0  0  0
    0.8329   -1.3138   -1.5782 H   0  0  0  0  0  0  0  0  0  0  0  0
   -0.8915   -1.1057   -1.1891 H   0  0  0  0  0  0  0  0  0  0  0  0
   -3.1719   -2.8665   -0.3542 H   0  0  0  0  0  0  0  0  0  0  0  0
   -2.4837   -3.4732    1.1675 H   0  0  0  0  0  0  0  0  0  0  0  0
   -1.0341   -2.8809   -1.4336 H   0  0  0  0  0  0  0  0  0  0  0  0
   -1.2012   -4.4439   -0.6111 H   0  0  0  0  0  0  0  0  0  0  0  0
   -2.7339    0.5690    0.8857 H   0  0  0  0  0  0  0  0  0  0  0  0
    3.5046    0.8249    1.3084 H   0  0  0  0  0  0  0  0  0  0  0  0
    4.3498   -0.7399    1.3826 H   0  0  0  0  0  0  0  0  0  0  0  0
    3.5072   -2.6850    0.0860 H   0  0  0  0  0  0  0  0  0  0  0  0
    2.2555   -2.4411   -1.1558 H   0  0  0  0  0  0  0  0  0  0  0  0
    3.8741   -1.7330   -1.3725 H   0  0  0  0  0  0  0  0  0  0  0  0
   -4.3951   -1.7189   -0.5216 H   0  0  0  0  0  0  0  0  0  0  0  0
    5.1564   -0.4143   -0.9395 H   0  0  0  0  0  0  0  0  0  0  0  0
    4.3113    1.1505   -1.0137 H   0  0  0  0  0  0  0  0  0  0  0  0
   -4.5799    2.3222   -0.7863 H   0  0  0  0  0  0  0  0  0  0  0  0
   -3.9964    1.7000    0.7791 H   0  0  0  0  0  0  0  0  0  0  0  0
    5.6790    1.9791    0.8814 H   0  0  0  0  0  0  0  0  0  0  0  0
    6.5241    0.4143    0.9556 H   0  0  0  0  0  0  0  0  0  0  0  0
   -6.3124    1.5969    1.6233 H   0  0  0  0  0  0  0  0  0  0  0  0
   -7.8877    0.1551    0.3659 H   0  0  0  0  0  0  0  0  0  0  0  0
   -8.3978    0.6245   -1.2764 H   0  0  0  0  0  0  0  0  0  0  0  0
   -8.1430    2.6093    0.2224 H   0  0  0  0  0  0  0  0  0  0  0  0
   -7.0095    2.6594   -1.1475 H   0  0  0  0  0  0  0  0  0  0  0  0
   -5.4884   -1.1808   -2.5995 H   0  0  0  0  0  0  0  0  0  0  0  0
   -7.3332   -0.8946   -2.7182 H   0  0  0  0  0  0  0  0  0  0  0  0
    7.2619    0.7549   -1.4217 H   0  0  0  0  0  0  0  0  0  0  0  0
    6.0510    3.5236   -0.9917 H   0  0  0  0  0  0  0  0  0  0  0  0
    7.0144    3.0195   -2.4010 H   0  0  0  0  0  0  0  0  0  0  0  0
    5.4251    2.2773   -2.0978 H   0  0  0  0  0  0  0  0  0  0  0  0
    8.7261    1.3908    0.4757 H   0  0  0  0  0  0  0  0  0  0  0  0
    8.9420    2.5018   -0.8981 H   0  0  0  0  0  0  0  0  0  0  0  0
    7.9787    3.0059    0.5112 H   0  0  0  0  0  0  0  0  0  0  0  0
  1  2  1  0  0  0  0
  1  3  1  0  0  0  0
  1 16  1  0  0  0  0
  1  9  1  6  0  0  0
  2 23  1  0  0  0  0
  2 14  1  0  0  0  0
  2 30  1  1  0  0  0
  3 15  1  0  0  0  0
  3  4  1  0  0  0  0
  3 31  1  1  0  0  0
  4  6  1  0  0  0  0
  4 10  1  0  0  0  0
  4 38  1  6  0  0  0
  5 22  1  0  0  0  0
  5 19  1  0  0  0  0
  5 21  1  0  0  0  0
  5 59  1  1  0  0  0
  6  7  1  0  0  0  0
  6 47  1  0  0  0  0
  6 48  1  0  0  0  0
  7  8  1  0  0  0  0
  7 53  1  0  0  0  0
  7 54  1  0  0  0  0
  8 26  1  0  0  0  0
  8 57  1  0  0  0  0
  8 58  1  0  0  0  0
  9 39  1  0  0  0  0
  9 40  1  0  0  0  0
  9 41  1  0  0  0  0
 10 49  1  0  0  0  0
 10 50  1  0  0  0  0
 10 51  1  0  0  0  0
 11 26  1  0  0  0  0
 11 67  1  0  0  0  0
 11 68  1  0  0  0  0
 11 69  1  0  0  0  0
 12 26  1  0  0  0  0
 12 70  1  0  0  0  0
 12 71  1  0  0  0  0
 12 72  1  0  0  0  0
 13 22  1  0  0  0  0
 14 15  1  0  0  0  0
 14 32  1  0  0  0  0
 14 33  1  0  0  0  0
 15 34  1  0  0  0  0
 15 35  1  0  0  0  0
 16 18  1  0  0  0  0
 16 36  1  0  0  0  0
 16 37  1  0  0  0  0
 17 23  1  0  0  0  0
 17 18  1  0  0  0  0
 17 42  1  0  0  0  0
 17 43  1  0  0  0  0
 18 44  1  0  0  0  0
 18 45  1  0  0  0  0
 19 24  1  0  0  0  0
 19 55  1  0  0  0  0
 19 56  1  0  0  0  0
 20 25  1  0  0  0  0
 20 21  1  0  0  0  0
 20 60  1  0  0  0  0
 20 61  1  0  0  0  0
 21 62  1  0  0  0  0
 21 63  1  0  0  0  0
 23 27  2  0  0  0  0
 24 28  2  0  0  0  0
 24 25  1  0  0  0  0
 25 29  2  0  0  0  0
 26 66  1  0  0  0  0
 27 28  1  0  0  0  0
 27 46  1  0  0  0  0
 28 52  1  0  0  0  0
 29 64  1  0  0  0  0
 29 65  1  0  0  0  0
M  END
