H2O
 OpenBabel01061904083D

  3  2  0  0  0  0  0  0  0  0999 V2000
   -0.0000   -0.3511   -0.0000 O   0  0  0  0  0  0  0  0  0  0  0  0
   -0.8110    0.1755    0.0000 H   0  0  0  0  0  0  0  0  0  0  0  0
    0.8110    0.1755    0.0000 H   0  0  0  0  0  0  0  0  0  0  0  0
  1  2  1  0  0  0  0
  1  3  1  0  0  0  0
M  END
