C13H19Cl2NO
 OpenBabel01061904083D

 36 34  0  0  0  0  0  0  0  0999 V2000
   22.8617    3.2414    0.7586 H   0  3  0  0  0  0  0  0  0  0  0  0
    1.1630   -2.8187    0.6096 C   0  0  0  0  0  0  0  0  0  0  0  0
    1.1858   -0.9142   -0.8802 C   0  0  0  0  0  0  0  0  0  0  0  0
    2.2825   -1.4429   -1.5272 C   0  0  0  0  0  0  0  0  0  0  0  0
    2.8197   -2.6495   -1.1137 C   0  0  0  0  0  0  0  0  0  0  0  0
   -0.2389    1.4169    0.9033 C   0  0  0  0  0  0  0  0  0  0  0  0
   -3.5964    0.0672   -1.1158 C   0  0  0  0  0  0  0  0  0  0  0  0
   -2.8474    2.3544   -0.4450 C   0  0  0  0  0  0  0  0  0  0  0  0
   -4.7627    1.2702    0.7377 C   0  0  0  0  0  0  0  0  0  0  0  0
   -2.8304   -0.4421    1.3835 H   0  0  0  0  0  0  0  0  0  0  0  0
    0.6153   -1.6002    0.1969 C   0  0  0  0  0  0  0  0  0  0  0  0
    2.2611   -3.3353   -0.0481 C   0  0  0  0  0  0  0  0  0  0  0  0
   -1.0481   -1.6399    1.8254 O   0  0  0  0  0  0  0  0  0  0  0  0
   -0.5558   -1.0425    0.8921 C   0  0  0  0  0  0  0  0  0  0  0  0
   -1.1430    0.2711    0.4442 C   0  0  1  0  0  0  0  0  0  0  0  0
    2.9438   -4.8477    0.4622 Cl  0  0  0  0  0  0  0  0  0  0  0  0
   -3.4117    1.0258    0.0623 C   0  0  0  0  0  0  0  0  0  0  0  0
   -2.4791    0.4360    1.0320 N   0  0  0  0  0  0  0  0  0  0  0  0
   14.4840    1.0833    0.3614 Cl  0  5  0  0  0  0  0  0  0  0  0  0
   -1.2204    0.2826   -0.6429 H   0  0  0  0  0  0  0  0  0  0  0  0
    0.7307   -3.3520    1.4433 H   0  0  0  0  0  0  0  0  0  0  0  0
    0.7683    0.0277   -1.2044 H   0  0  0  0  0  0  0  0  0  0  0  0
    2.7235   -0.9141   -2.3594 H   0  0  0  0  0  0  0  0  0  0  0  0
    3.6787   -3.0585   -1.6249 H   0  0  0  0  0  0  0  0  0  0  0  0
    0.7692    1.2604    0.5194 H   0  0  0  0  0  0  0  0  0  0  0  0
   -0.6292    2.3616    0.5250 H   0  0  0  0  0  0  0  0  0  0  0  0
   -0.2126    1.4449    1.9927 H   0  0  0  0  0  0  0  0  0  0  0  0
   -3.9887   -0.8829   -0.7530 H   0  0  0  0  0  0  0  0  0  0  0  0
   -4.2964    0.5002   -1.8303 H   0  0  0  0  0  0  0  0  0  0  0  0
   -2.6357   -0.0988   -1.6032 H   0  0  0  0  0  0  0  0  0  0  0  0
   -1.8333    2.2012   -0.8140 H   0  0  0  0  0  0  0  0  0  0  0  0
   -3.4749    2.7310   -1.2527 H   0  0  0  0  0  0  0  0  0  0  0  0
   -2.8319    3.0776    0.3705 H   0  0  0  0  0  0  0  0  0  0  0  0
   -4.6311    1.9531    1.5769 H   0  0  0  0  0  0  0  0  0  0  0  0
   -5.4547    1.7078    0.0181 H   0  0  0  0  0  0  0  0  0  0  0  0
   -5.1647    0.3237    1.0991 H   0  0  0  0  0  0  0  0  0  0  0  0
  2 11  2  0  0  0  0
  2 12  1  0  0  0  0
  2 21  1  0  0  0  0
  3 11  1  0  0  0  0
  3  4  2  0  0  0  0
  3 22  1  0  0  0  0
  4  5  1  0  0  0  0
  4 23  1  0  0  0  0
  5 12  2  0  0  0  0
  5 24  1  0  0  0  0
  6 15  1  0  0  0  0
  6 25  1  0  0  0  0
  6 26  1  0  0  0  0
  6 27  1  0  0  0  0
  7 17  1  0  0  0  0
  7 28  1  0  0  0  0
  7 29  1  0  0  0  0
  7 30  1  0  0  0  0
  8 17  1  0  0  0  0
  8 31  1  0  0  0  0
  8 32  1  0  0  0  0
  8 33  1  0  0  0  0
  9 17  1  0  0  0  0
  9 34  1  0  0  0  0
  9 35  1  0  0  0  0
  9 36  1  0  0  0  0
 10 18  1  0  0  0  0
 11 14  1  0  0  0  0
 12 16  1  0  0  0  0
 13 14  2  0  0  0  0
 14 15  1  0  0  0  0
 15 18  1  0  0  0  0
 15 20  1  6  0  0  0
 17 18  1  0  0  0  0
M  CHG  2   1   1  19  -1
M  END
