O4SiZr
 OpenBabel01061904093D

  6  4  0  0  0  0  0  0  0  0999 V2000
    8.9553    0.0000   -0.0000 Zr  0  0  0  0  0  0  0  0  0  0  0  0
   -3.0963    0.9624    0.1740 O   0  5  0  0  0  0  0  0  0  0  0  0
   -1.5271   -0.8143    1.3883 O   0  5  0  0  0  0  0  0  0  0  0  0
   -2.0551   -1.0607   -1.2106 O   0  5  0  0  0  0  0  0  0  0  0  0
   -0.4858    0.9125   -0.3517 O   0  5  0  0  0  0  0  0  0  0  0  0
   -1.7911    0.0000   -0.0000 Si  0  0  0  0  0  0  0  0  0  0  0  0
  2  6  1  0  0  0  0
  3  6  1  0  0  0  0
  4  6  1  0  0  0  0
  5  6  1  0  0  0  0
M  CHG  5   1   4   2  -1   3  -1   4  -1   5  -1
M  END
