32
15600
 C    0.660900    0.387900    0.066100
 C   -0.642900   -0.416100    0.097200
 C    1.914100   -0.489400    0.024000
 C   -1.896200    0.462500    0.063500
 C    3.185800    0.361800    0.007100
 C   -3.199200   -0.343000    0.034200
 C    4.438100   -0.511000   -0.073500
 C   -4.449800    0.530500   -0.074800
 C    5.705000    0.329500   -0.056800
 C   -5.715800   -0.312900   -0.087000
 H    0.654500    1.046100   -0.811600
 H    0.700300    1.037900    0.949000
 H   -0.661800   -1.040700    0.998600
 H   -0.661600   -1.098500   -0.761600
 H    1.926200   -1.154000    0.896400
 H    1.883700   -1.126300   -0.868200
 H   -1.899000    1.124300    0.938300
 H   -1.856400    1.108400   -0.822400
 H    3.160900    1.045500   -0.850300
 H    3.224700    0.980000    0.912300
 H   -3.172100   -1.037400   -0.814900
 H   -3.260200   -0.955900    0.942100
 H    4.460200   -1.209400    0.771100
 H    4.415400   -1.111100   -0.990500
 H   -4.488700    1.228900    0.769100
 H   -4.405200    1.129900   -0.991300
 H    6.587900   -0.314500   -0.116200
 H    5.774200    0.916700    0.864500
 H    5.729400    1.019000   -0.906700
 H   -6.598200    0.329900   -0.165500
 H   -5.720200   -1.001500   -0.937900
 H   -5.804400   -0.900800    0.832000
