62
C20H42
 C   -0.622000   -0.445400    0.000000
 C   -1.876500    0.430500    0.000000
 C   -3.120400   -0.460300    0.000000
 C   -4.374900    0.415500    0.000000
 C   -5.618800   -0.475300    0.000000
 C   -6.873300    0.400600    0.000000
 C   -8.117300   -0.490200    0.000000
 C   -9.371800    0.385700    0.000000
 C  -10.615700   -0.505100    0.000000
 C  -11.870200    0.370700    0.000000
 C    0.622000    0.445400    0.000000
 C    1.876500   -0.430500    0.000000
 C    3.120400    0.460300    0.000000
 C    4.374900   -0.415500    0.000000
 C    5.618800    0.475300    0.000000
 C    6.873300   -0.400600    0.000000
 C    8.117300    0.490200    0.000000
 C    9.371800   -0.385700    0.000000
 C   10.615700    0.505100    0.000000
 C   11.870200   -0.370700    0.000000
 H   -0.618200   -1.074700    0.890000
 H   -0.618200   -1.074700   -0.890000
 H   -1.880200    1.059800    0.890000
 H   -1.880200    1.059800   -0.890000
 H   -3.116600   -1.089600   -0.890000
 H   -3.116600   -1.089600    0.890000
 H   -4.378700    1.044800    0.890000
 H   -4.378700    1.044800   -0.890000
 H   -5.615100   -1.104600   -0.890000
 H   -5.615100   -1.104600    0.890000
 H   -6.877100    1.029900    0.890000
 H   -6.877100    1.029900   -0.890000
 H   -8.113500   -1.119500   -0.890000
 H   -8.113500   -1.119500    0.890000
 H   -9.375500    1.015000    0.890000
 H   -9.375500    1.015000   -0.890000
 H  -10.611900   -1.134400   -0.890000
 H  -10.611900   -1.134400    0.890000
 H  -11.874000    1.000000   -0.890000
 H  -12.756400   -0.263900    0.000000
 H  -11.874000    1.000000    0.890000
 H    0.618200    1.074700   -0.890000
 H    0.618200    1.074700    0.890000
 H    1.880200   -1.059800    0.890000
 H    1.880200   -1.059800   -0.890000
 H    3.116600    1.089600   -0.890000
 H    3.116600    1.089600    0.890000
 H    4.378700   -1.044800    0.890000
 H    4.378700   -1.044800   -0.890000
 H    5.615100    1.104600   -0.890000
 H    5.615100    1.104600    0.890000
 H    6.877100   -1.029900    0.890000
 H    6.877100   -1.029900   -0.890000
 H    8.113500    1.119500   -0.890000
 H    8.113500    1.119500    0.890000
 H    9.375500   -1.015000    0.890000
 H    9.375500   -1.015000   -0.890000
 H   10.611900    1.134400   -0.890000
 H   10.611900    1.134400    0.890000
 H   11.874000   -1.000000    0.890000
 H   11.874000   -1.000000   -0.890000
 H   12.756400    0.263900    0.000000
