50
Ring with 25 units, R=12.732 A, circumference=80.000 A
Li	12.732395447351628	0.0	0.0
H	12.631996706267078	1.5957922924360057	0.0
Li	12.332383831135632	3.1664179871401874	0.0
H	11.838281895978167	4.687107378660748	0.0
Li	11.157483183474309	6.1338782868776	0.0
H	10.300724296009678	7.483914270309113	0.0
Li	9.281516833042545	8.715924455024167	0.0
H	8.115934305108928	9.810479304442598	0.0
Li	6.82235864495959	10.750317034733701	0.0
H	5.421190313499733	11.520615843458941	0.0
Li	3.9345265723338647	12.109227658250513	0.0
H	2.3858129967500448	12.506869719169503	0.0
Li	0.7994737249918751	12.707270973375364	0.0
H	-0.7994737249918706	12.707270973375364	0.0
Li	-2.385812996750043	12.506869719169503	0.0
H	-3.9345265723338634	12.109227658250514	0.0
Li	-5.421190313499733	11.52061584345894	0.0
H	-6.822358644959594	10.7503170347337	0.0
Li	-8.115934305108928	9.810479304442598	0.0
H	-9.281516833042547	8.715924455024167	0.0
Li	-10.300724296009678	7.483914270309114	0.0
H	-11.157483183474309	6.133878286877598	0.0
Li	-11.838281895978167	4.687107378660751	0.0
H	-12.332383831135632	3.166417987140188	0.0
Li	-12.631996706267078	1.5957922924360093	0.0
H	-12.732395447351628	1.5592687330077503e-15	0.0
Li	-12.631996706267078	-1.5957922924360062	0.0
H	-12.332383831135632	-3.16641798714019	0.0
Li	-11.838281895978168	-4.687107378660747	0.0
H	-11.157483183474307	-6.133878286877601	0.0
Li	-10.300724296009683	-7.483914270309107	0.0
H	-9.28151683304255	-8.715924455024165	0.0
Li	-8.115934305108926	-9.8104793044426	0.0
H	-6.822358644959587	-10.750317034733705	0.0
Li	-5.421190313499726	-11.520615843458943	0.0
H	-3.9345265723338554	-12.109227658250514	0.0
Li	-2.3858129967500434	-12.506869719169503	0.0
H	-0.799473724991871	-12.707270973375364	0.0
Li	0.7994737249918662	-12.707270973375364	0.0
H	2.385812996750039	-12.506869719169503	0.0
Li	3.9345265723338616	-12.109227658250514	0.0
H	5.421190313499732	-11.520615843458941	0.0
Li	6.822358644959593	-10.7503170347337	0.0
H	8.115934305108931	-9.810479304442596	0.0
Li	9.281516833042543	-8.715924455024172	0.0
H	10.300724296009678	-7.483914270309116	0.0
Li	11.157483183474303	-6.13387828687761	0.0
H	11.838281895978163	-4.687107378660758	0.0
Li	12.33238383113563	-3.1664179871401945	0.0
H	12.631996706267078	-1.5957922924360108	0.0
