30
Ring with 15 units, R=7.639 A, circumference=48.000 A
Li	7.639437268410976	0.0	0.0
H	7.472497235052614	1.5883283193715307	0.0
Li	6.978973215502446	3.1072390695416408	0.0
H	6.180434577605807	4.490348562185467	0.0
Li	5.111781291652296	5.677208275578776	0.0
H	3.819718634205489	6.615946745061504	0.0
Li	2.3607159434003187	7.265536594950307	0.0
H	0.7985386378966396	7.597587631727109	0.0
Li	-0.7985386378966386	7.59758763172711	0.0
H	-2.3607159434003178	7.265536594950308	0.0
Li	-3.8197186342054867	6.615946745061505	0.0
H	-5.111781291652294	5.677208275578778	0.0
Li	-6.180434577605806	4.490348562185468	0.0
H	-6.978973215502445	3.107239069541643	0.0
Li	-7.472497235052614	1.5883283193715307	0.0
H	-7.639437268410976	9.355612398046502e-16	0.0
Li	-7.472497235052614	-1.5883283193715287	0.0
H	-6.978973215502448	-3.1072390695416385	0.0
Li	-6.180434577605807	-4.490348562185466	0.0
H	-5.1117812916522976	-5.677208275578774	0.0
Li	-3.8197186342054916	-6.615946745061502	0.0
H	-2.3607159434003195	-7.265536594950307	0.0
Li	-0.7985386378966455	-7.597587631727109	0.0
H	0.7985386378966359	-7.59758763172711	0.0
Li	2.360715943400317	-7.265536594950308	0.0
H	3.819718634205489	-6.615946745061504	0.0
Li	5.1117812916522976	-5.677208275578774	0.0
H	6.180434577605809	-4.4903485621854635	0.0
Li	6.978973215502446	-3.1072390695416408	0.0
H	7.472497235052614	-1.588328319371528	0.0
