122
C40H82
 C   -0.624000   -0.442600    0.000000
 C   -1.874500    0.438900    0.000000
 C   -3.122400   -0.446400    0.000000
 C   -4.373000    0.435100    0.000000
 C   -5.620900   -0.450100    0.000000
 C   -6.871500    0.431400    0.000000
 C   -8.119400   -0.453900    0.000000
 C   -9.370000    0.427600    0.000000
 C  -10.617900   -0.457600    0.000000
 C  -11.868400    0.423800    0.000000
 C  -13.116300   -0.461400    0.000000
 C  -14.366900    0.420100    0.000000
 C  -15.614800   -0.465100    0.000000
 C  -16.865400    0.416300    0.000000
 C  -18.113300   -0.468900    0.000000
 C  -19.363899    0.412600    0.000000
 C  -20.611799   -0.472600    0.000000
 C  -21.862301    0.408800    0.000000
 C  -23.110201   -0.476400    0.000000
 C  -24.360800    0.405100    0.000000
 C    0.624000    0.442600    0.000000
 C    1.874500   -0.438900    0.000000
 C    3.122400    0.446400    0.000000
 C    4.373000   -0.435100    0.000000
 C    5.620900    0.450100    0.000000
 C    6.871500   -0.431400    0.000000
 C    8.119400    0.453900    0.000000
 C    9.370000   -0.427600    0.000000
 C   10.617900    0.457600    0.000000
 C   11.868400   -0.423800    0.000000
 C   13.116300    0.461400    0.000000
 C   14.366900   -0.420100    0.000000
 C   15.614800    0.465100    0.000000
 C   16.865400   -0.416300    0.000000
 C   18.113300    0.468900    0.000000
 C   19.363899   -0.412600    0.000000
 C   20.611799    0.472600    0.000000
 C   21.862301   -0.408800    0.000000
 C   23.110201    0.476400    0.000000
 C   24.360800   -0.405100    0.000000
 H   -0.623000   -1.071900    0.890000
 H   -0.623000   -1.071900   -0.890000
 H   -1.875500    1.068200    0.890000
 H   -1.875500    1.068200   -0.890000
 H   -3.121500   -1.075700   -0.890000
 H   -3.121500   -1.075700    0.890000
 H   -4.373900    1.064400    0.890000
 H   -4.373900    1.064400   -0.890000
 H   -5.620000   -1.079400   -0.890000
 H   -5.620000   -1.079400    0.890000
 H   -6.872400    1.060700    0.890000
 H   -6.872400    1.060700   -0.890000
 H   -8.118400   -1.083200   -0.890000
 H   -8.118400   -1.083200    0.890000
 H   -9.370900    1.056900    0.890000
 H   -9.370900    1.056900   -0.890000
 H  -10.616900   -1.086900   -0.890000
 H  -10.616900   -1.086900    0.890000
 H  -11.869400    1.053200    0.890000
 H  -11.869400    1.053200   -0.890000
 H  -13.115400   -1.090700   -0.890000
 H  -13.115400   -1.090700    0.890000
 H  -14.367800    1.049400    0.890000
 H  -14.367800    1.049400   -0.890000
 H  -15.613900   -1.094400   -0.890000
 H  -15.613900   -1.094400    0.890000
 H  -16.866301    1.045600    0.890000
 H  -16.866301    1.045600   -0.890000
 H  -18.112301   -1.098200   -0.890000
 H  -18.112301   -1.098200    0.890000
 H  -19.364799    1.041900    0.890000
 H  -19.364799    1.041900   -0.890000
 H  -20.610800   -1.102000   -0.890000
 H  -20.610800   -1.101900    0.890000
 H  -21.863300    1.038100    0.890000
 H  -21.863300    1.038100   -0.890000
 H  -23.109301   -1.105700   -0.890000
 H  -23.109301   -1.105700    0.890000
 H  -24.361799    1.034400    0.890000
 H  -24.361799    1.034400   -0.890000
 H  -25.249800   -0.225600    0.000000
 H    0.623000    1.071900   -0.890000
 H    0.623000    1.071900    0.890000
 H    1.875500   -1.068200    0.890000
 H    1.875500   -1.068200   -0.890000
 H    3.121500    1.075700   -0.890000
 H    3.121500    1.075700    0.890000
 H    4.373900   -1.064400    0.890000
 H    4.373900   -1.064400   -0.890000
 H    5.620000    1.079400   -0.890000
 H    5.620000    1.079400    0.890000
 H    6.872400   -1.060700    0.890000
 H    6.872400   -1.060700   -0.890000
 H    8.118400    1.083200   -0.890000
 H    8.118400    1.083200    0.890000
 H    9.370900   -1.056900    0.890000
 H    9.370900   -1.056900   -0.890000
 H   10.616900    1.086900   -0.890000
 H   10.616900    1.086900    0.890000
 H   11.869400   -1.053200    0.890000
 H   11.869400   -1.053200   -0.890000
 H   13.115400    1.090700   -0.890000
 H   13.115400    1.090700    0.890000
 H   14.367800   -1.049400    0.890000
 H   14.367800   -1.049400   -0.890000
 H   15.613900    1.094400   -0.890000
 H   15.613900    1.094400    0.890000
 H   16.866301   -1.045600    0.890000
 H   16.866301   -1.045600   -0.890000
 H   18.112301    1.098200   -0.890000
 H   18.112301    1.098200    0.890000
 H   19.364799   -1.041900    0.890000
 H   19.364799   -1.041900   -0.890000
 H   20.610800    1.102000   -0.890000
 H   20.610800    1.101900    0.890000
 H   21.863300   -1.038100    0.890000
 H   21.863300   -1.038100   -0.890000
 H   23.109301    1.105700   -0.890000
 H   23.109301    1.105700    0.890000
 H   24.361799   -1.034400    0.890000
 H   24.361799   -1.034400   -0.890000
 H   25.249800    0.225600    0.000000
