22
C12H4Cl4O2
Cl         3.53016        1.02410        0.00000
C          2.66606        0.52080        0.00000
C          1.75996        1.03470        0.00000
C          0.86606        0.50000        0.00000
C          0.86606       -0.50000        0.00000
O         -0.00004       -1.00000        0.00000
C         -0.86604       -0.50000        0.00000
C         -0.86604        0.50000        0.00000
O         -0.00004        1.00000        0.00000
C         -1.75994        1.03470        0.00000
C         -2.66604        0.52080        0.00000
C         -2.66604       -0.52080        0.00000
C         -1.75994       -1.03470        0.00000
Cl        -3.53014       -1.02410        0.00000
Cl        -3.53014        1.02410        0.00000
C          1.75996       -1.03470        0.00000
C          2.66606       -0.52080        0.00000
Cl         3.53016       -1.02410        0.00000
H          1.75276        1.65460        0.00000
H         -1.75284        1.65460        0.00000
H         -1.75284       -1.65460        0.00000
H          1.75276       -1.65460        0.00000
