30
C15H13NO
C          3.06546       -0.39332        0.00000
C          4.04286       -0.18172        0.00000
O          2.76016       -1.34562        0.00000
N          2.39356        0.34718        0.00000
C          1.41616        0.13548        0.00000
C          0.71326        0.90418        0.00000
C         -0.30214        0.67198        0.00000
C         -1.11114        1.25978        0.00000
C         -1.92024        0.67198        0.00000
C         -2.93564        0.90418        0.00000
C         -3.63854        0.13548        0.00000
C         -3.31664       -0.85512        0.00000
C         -2.29614       -1.06382        0.00000
C         -1.61114       -0.27912        0.00000
C         -0.61114       -0.27912        0.00000
C          0.07376       -1.06382        0.00000
C          1.09426       -0.85512        0.00000
H          4.17406       -0.78762        0.00000
H          4.64876       -0.05042        0.00000
H          3.91156        0.42428        0.00000
H          2.58286        0.93758        0.00000
H          0.89796        1.49608        0.00000
H         -0.69634        1.72048        0.00000
H         -1.52604        1.72048        0.00000
H         -3.12034        1.49608        0.00000
H         -4.24454        0.26678        0.00000
H         -3.72974       -1.31742        0.00000
H         -2.09774       -1.65122        0.00000
H         -0.12464       -1.65122        0.00000
H          1.50736       -1.31742        0.00000
