14
C5H4N4S
S          2.72028        0.75112       -0.12633
C          1.27948       -0.26308       -0.10843
C          0.00468        0.30752       -0.10103
N         -0.49302        1.59312       -0.10373
C         -1.84182        1.49902       -0.09163
N         -2.20362        0.24622       -0.08163
C         -1.11292       -0.54288       -0.08673
N         -0.91282       -1.86498       -0.08053
C          0.30638       -2.35698       -0.08763
N          1.38138       -1.59058       -0.10723
H          2.93218        0.89992        1.25967
H          0.02698        2.41192       -0.11243
H         -2.52062        2.33912       -0.09003
H          0.43348       -3.42948       -0.08233
