39
C15H20O4
C         -1.27915        2.39332       -0.40733
C         -1.93075        0.98252        1.55187
C         -0.95765       -2.66308       -0.31413
C          2.79155       -0.17298        1.49047
H         -0.43495       -0.61128       -2.38503
O         -5.07935       -0.37218        0.39537
O          5.15885       -0.42318        0.98787
C         -3.34865        0.98752       -0.51203
O         -0.94095        0.08972       -1.95183
O          6.18205        0.10152       -0.91473
C          2.67535       -0.00958       -0.00313
C          5.06775       -0.08338       -0.17663
C         -1.78715       -1.40508       -0.29483
C         -3.94015       -0.31688       -0.01853
H          7.00455       -0.05968       -0.43233
C          0.25685       -0.11548        0.10847
C          1.35675        0.01072       -0.63643
C          3.79055        0.11842       -0.75833
C         -3.08885       -1.51068       -0.05763
C         -1.10155       -0.09458       -0.54383
C         -1.91235        1.06912        0.02447
H          0.34005       -0.23258        1.17887
H         -3.33885        1.00142       -1.60193
H         -3.93375        1.82622       -0.13483
H         -1.27105        2.45432       -1.49563
H         -1.85855        3.22262       -0.00133
H         -0.25695        2.44652       -0.03283
H         -0.91005        1.03242        1.93097
H         -2.50945        1.81312        1.95597
H         -2.38595        0.04022        1.85687
H         -3.52525       -2.48458        0.10777
H         -0.58275       -2.86648        0.68897
H         -1.57255       -3.49868       -0.64853
H         -0.11775       -2.53408       -0.99673
H          1.27355        0.12792       -1.70683
H          3.70795        0.37422       -1.80433
H          2.96245       -1.22278        1.72887
H          3.62675        0.42352        1.85737
H          1.86945        0.16202        1.96547
