17
C8H8O
C         -0.18445        1.22412        0.00000
C          0.68165        1.72412        0.00000
O         -1.05045        1.72412        0.00000
C         -0.18445        0.22412        0.00000
C         -1.05045       -0.27588        0.00000
C         -1.05045       -1.27588        0.00000
C         -0.18445       -1.77588        0.00000
C          0.68165       -1.27588        0.00000
C          0.68165       -0.27588        0.00000
H          0.99165        1.18722        0.00000
H          1.21855        2.03412        0.00000
H          0.37165        2.26102        0.00000
H         -1.58735        0.03412        0.00000
H         -1.58735       -1.58588        0.00000
H         -0.18445       -2.39588        0.00000
H          1.21855       -1.58588        0.00000
H          1.21855        0.03412        0.00000
