27
C7H16ClNO2
Cl       -12.37043       -0.96772       -0.22587
C          2.43517       -1.83882       -0.19187
C          2.44917       -3.12602        0.59153
O          3.46247       -1.40162       -0.65407
O          1.28067       -1.18072       -0.38097
C          1.34227        0.05228       -1.14527
C         -0.05983        0.65498       -1.25497
N         -0.51453        1.08218        0.07493
C          0.47947        1.98898        0.66443
C         -1.80143        1.77968       -0.04827
C         -0.67643       -0.09502        0.93863
H          3.46687       -3.51392        0.63503
H          2.08787       -2.93982        1.60293
H          1.80287       -3.85552        0.10343
H          2.00307        0.75868       -0.64267
H          1.72657       -0.15772       -2.14337
H         -0.03423        1.51518       -1.92387
H         -0.74673       -0.09292       -1.65097
H          0.59957        2.86248        0.02363
H          0.14207        2.30598        1.65123
H          1.43437        1.47138        0.75593
H         -2.53903        1.10688       -0.48567
H         -2.13893        2.09668        0.93853
H         -1.68133        2.65318       -0.68917
H          0.30437       -0.49722        1.19223
H         -1.19813        0.19288        1.85133
H         -1.25573       -0.85432        0.41323
