20
C8H9NO2
C          0.49895        0.97194        0.27470
C          0.98405       -1.32406       -0.24979
C          1.84195        1.27754        0.17530
C          2.32665       -1.01686       -0.34940
C         -3.68645       -0.02006        0.02190
H          4.56655        0.49844        0.59710
H         -1.57215       -1.51056        0.49360
C          0.06615       -0.33016        0.06241
C          2.75845        0.28414       -0.13670
O         -1.88075        1.31754       -0.69929
O          4.08065        0.58574       -0.23439
C         -2.22365        0.26784       -0.19759
N         -1.29635       -0.64116        0.16361
H         -0.21395        1.74454        0.52201
H          0.64795       -2.33696       -0.41550
H          2.17875        2.29044        0.34010
H          3.04065       -1.78976       -0.59259
H         -4.09495       -0.51716       -0.85799
H         -3.80295       -0.66696        0.89150
H         -4.21955        0.91554        0.19100
