10
C3H5NO
C          0.64458        0.34637       -0.00244
C         -0.63502       -0.37933       -0.00184
C         -1.78162        0.29457        0.00066
O          0.65398        1.56247       -0.00054
N          1.80648       -0.33653        0.00066
H         -0.64332       -1.45923       -0.00344
H         -1.77332        1.37447        0.00236
H         -2.72102       -0.23823        0.00116
H          1.79898       -1.30653        0.00316
H          2.65028        0.14197        0.00026
