15
C5H5N5
N         -1.50858        0.01973        0.00000
C         -1.50858       -0.98027        0.00000
N         -0.64258       -1.48027        0.00000
C          0.22352       -0.98027        0.00000
N          1.16972       -1.28497        0.00000
C          1.75332       -0.48027        0.00000
N          1.16972        0.32443        0.00000
C          0.22352        0.01973        0.00000
C         -0.64258        0.51973        0.00000
N         -0.64258        1.51973        0.00000
H         -2.04548       -1.29027        0.00000
H          2.37332       -0.48027        0.00000
H          1.36232        0.91383        0.00000
H         -1.17948        1.82973        0.00000
H         -0.10558        1.82973        0.00000
