26
C9H13NO3
C          1.41325        2.62711        0.00000
N          0.54725        2.12711        0.00000
C          0.54725        1.12711        0.00000
C         -0.31875        0.62711        0.00000
O         -1.18475        1.12711        0.00000
C         -0.31875       -0.37289        0.00000
C         -1.18475       -0.87289        0.00000
C         -1.18475       -1.87289        0.00000
O         -2.05085       -2.37289        0.00000
C         -0.31875       -2.37289        0.00000
O         -0.31875       -3.37289        0.00000
C          0.54725       -1.87289        0.00000
C          0.54725       -0.87289        0.00000
H          1.72325        2.09021        0.00000
H          1.95025        2.93711        0.00000
H          1.10325        3.16401        0.00000
H          0.01035        2.43711        0.00000
H          0.75935        0.54451        0.00000
H          1.15785        1.23481        0.00000
H         -0.31875        1.24711        0.00000
H         -1.18475        1.74711        0.00000
H         -1.72175       -0.56289        0.00000
H         -2.58775       -2.06289        0.00000
H          0.21815       -3.68289        0.00000
H          1.08415       -2.18289        0.00000
H          1.08415       -0.56289        0.00000
