7
C3H4
C          1.30700        0.00057       -0.00059
C          0.00000        0.00047       -0.00049
C         -1.30700        0.00027       -0.00029
H          1.84700        0.66067        0.66201
H          1.84700       -0.66253       -0.66019
H         -1.84690       -0.66243        0.65981
H         -1.84710        0.66297       -0.66029
