6
CaO4S
O          1.16667        0.16667        0.00000
O          0.16667        1.16667        0.00000
O         -0.83333        0.16667        0.00000
O          0.16667       -0.83333        0.00000
S          0.16667        0.16667        0.00000
Ca        -0.83333       -0.83333        0.00000
