19
C8H6Cl2O3
C          0.47542       -0.72816        0.00000
C         -1.25668       -1.72816        0.00000
C          0.47542       -1.72816        0.00000
C          0.47542        1.27184        0.00000
C         -0.39058       -0.22816        0.00000
C         -1.25668       -0.72816        0.00000
C         -0.39058       -2.22816        0.00000
O         -0.39058        2.77184        0.00000
O          1.34142        2.77184        0.00000
C          0.47542        2.27184        0.00000
O         -0.39058        0.77184        0.00000
H          1.34142        3.39184        0.00000
Cl        -2.12268       -0.22816        0.00000
Cl        -0.39058       -3.22816        0.00000
H          1.01232       -0.41816        0.00000
H         -1.79358       -2.03816        0.00000
H          1.01232       -2.03816        0.00000
H          0.68742        0.68924        0.00000
H          1.08602        1.37954        0.00000
