26
C6H14N4O2
N          2.61132        1.78812       -0.27852
C          2.54922        0.48392        0.39478
H          2.49562        0.63392        1.47308
C          1.30712       -0.27488       -0.07682
C          0.05082        0.47332        0.37328
C         -1.19118       -0.28548       -0.09832
N         -2.39418        0.43092        0.33268
C         -3.63818       -0.06518        0.02178
N         -3.75318       -1.23348       -0.69372
N         -4.70848        0.57222        0.40528
C          3.78282       -0.31388        0.05928
O          4.43892       -0.03068       -0.91502
O          4.15282       -1.33908        0.84278
H          2.66162        1.67592       -1.28002
H          1.82692        2.36702       -0.01842
H          1.31682       -0.34728       -1.16442
H          1.30772       -1.27608        0.35388
H          0.04112        0.54572        1.46088
H          0.05022        1.47462       -0.05742
H         -1.18158       -0.35788       -1.18592
H         -1.19068       -1.28678        0.33248
H         -2.31298        1.25522        0.83748
H         -2.95668       -1.70788       -0.97912
H         -4.63088       -1.58348       -0.91302
H         -5.58608        0.22232        0.18598
H          4.95112       -1.82108        0.58718
