17
C4H8N2O3
N         -0.46821        1.76952       -0.01347
C         -0.62251        0.37462       -0.44747
H         -0.44481        0.30622       -1.52067
C          0.38669       -0.50478        0.29363
C          1.78509       -0.11408       -0.10997
N          2.84399       -0.75788        0.41973
O          1.95759        0.77972       -0.91147
C         -2.02061       -0.09578       -0.13887
O         -2.68511        0.48532        0.68613
O         -2.52751       -1.16018       -0.78047
H         -1.07911        2.38012       -0.53487
H         -0.62811        1.85922        0.97873
H          0.26719       -0.36828        1.36843
H          0.21369       -1.55028        0.03873
H          2.70609       -1.47268        1.06073
H          3.74409       -0.50638        0.15993
H         -3.42841       -1.42438       -0.54877
