32
C10H13N5O4
N         -3.89956        2.15854       -0.30615
N         -4.21716        3.12344       -0.78735
C         -0.31316        0.11214        0.58485
C         -2.51176        0.39324       -0.42525
C         -2.33926       -0.93886        0.33765
C         -3.06616       -2.06936       -0.39345
C          4.45634        0.91994        1.53765
H         -3.36766       -4.04326       -0.05565
H          2.85554       -0.54726       -2.45855
O          0.48994       -0.59696       -1.87065
O          4.81094        0.09044       -1.11815
C         -1.14826        1.10054       -0.25885
O         -2.93016       -3.28216        0.34995
C          1.38234       -0.25946       -1.11695
C          3.35594        0.50124        0.59695
C          3.65784        0.10004       -0.72675
O         -0.91506       -1.17846        0.34425
C          2.06954        0.49824        1.00715
N          1.08274        0.11474        0.14015
N          2.65664       -0.27086       -1.55025
N         -3.58186        1.19374        0.17505
H         -0.37406        0.36794        1.64275
H         -2.72116        0.20594       -1.47845
H         -2.71266       -0.84336        1.35715
H         -1.27026        2.04584        0.27005
H         -0.68116        1.26294       -1.23025
H          1.82054        0.79744        2.01455
H         -4.12266       -1.81906       -0.49035
H         -2.63136       -2.19986       -1.38435
H          4.82384        0.04754        2.07805
H          5.27214        1.36444        0.96755
H          4.06894        1.65054        2.24765
