12
C6H6
C          0.16410       -1.37260       -0.00045
C         -1.10660       -0.82840       -0.00015
C         -1.27070        0.54420       -0.00025
C         -0.16410        1.37260       -0.00025
C          1.10660        0.82840        0.00035
C          1.27070       -0.54420       -0.00095
H          0.29230       -2.44490        0.00415
H         -1.97120       -1.47560       -0.00025
H         -2.26350        0.96930       -0.00075
H         -0.29230        2.44490       -0.00105
H          1.97120        1.47560       -0.00035
H          2.26350       -0.96930       -0.00005
