12
C4H6O2
C         -0.43305       -0.25000        0.00000
O         -0.43305       -1.25000        0.00000
C         -1.29905        0.25000        0.00000
C          0.43305        0.25000        0.00000
O          0.43305        1.25000        0.00000
C          1.29905       -0.25000        0.00000
H         -0.98905        0.78690        0.00000
H         -1.83595        0.56000        0.00000
H         -1.60905       -0.28690        0.00000
H          0.98905       -0.78690        0.00000
H          1.83595       -0.56000        0.00000
H          1.60905        0.28690        0.00000
