39
C12H18N2O7
C          0.34158        0.45160        0.00000
C          0.60038        1.41750        0.00000
C          0.08278       -0.51430        0.00000
C          0.78988       -1.22140        0.00000
C          1.49698       -1.92850        0.00000
C          1.49698       -0.51430        0.00000
H          1.45808        2.54390        0.00000
H         -0.87752        0.52590        0.00000
H          0.24328       -2.52740        0.00000
H          1.67658       -3.33290        0.00000
H          2.48358       -0.84410        0.00000
H          0.39028        3.36510        0.00000
O         -1.60212        2.52500        0.00000
O          3.29838        1.15870        0.00000
O          0.85928        2.38350        0.00000
O         -0.82352       -0.09160        0.00000
O          0.08278       -1.92850        0.00000
O          1.23818       -2.89440        0.00000
C         -2.02442       -0.91440        0.00000
C         -2.52442       -0.04840        0.00000
C         -2.52442        1.68370        0.00000
C         -0.63622        2.26620        0.00000
C          2.43238        0.65870        0.00000
C         -2.02442        0.81760        0.00000
O         -1.02442       -0.91440        0.00000
N          2.17358       -0.30720        0.00000
N          0.22988        2.76620        0.00000
H         -0.27282       -1.02220        0.00000
H         -2.60702       -1.12650        0.00000
H         -1.91672       -1.52500        0.00000
H         -2.99932        0.35010        0.00000
H         -2.99932       -0.44690        0.00000
H          2.05888       -2.19050        0.00000
H          1.85258       -1.42060        0.00000
H          1.93538       -0.95270        0.00000
H          1.93538       -0.07590        0.00000
H          1.05858       -0.07590        0.00000
H         -2.21442        2.22060        0.00000
H         -3.14442        1.68370        0.00000
