32
C10H16N2O3S
C          0.10232       -0.25455       -0.41292
C          1.36302        0.58235       -0.18672
C          2.56652       -0.34585       -0.01102
C          3.82722        0.49095        0.21518
H         -1.55508       -2.12655       -0.58212
H         -4.88698       -0.60995        1.15378
O         -3.42148       -2.72795        1.08908
O          4.86442       -1.62125        0.33608
C         -3.32818        1.68705        0.57108
O          6.23332        0.09335        0.60048
C          5.01272       -0.42325        0.38828
C         -1.10128        0.67365       -0.58872
C         -3.26828       -1.68935        0.47578
H          6.96272       -0.53265        0.70548
C         -2.36618       -0.13295       -0.94222
C         -3.62748        0.44105       -0.28532
N         -2.25268       -1.48545       -0.37432
N         -4.09998       -0.64475        0.58788
S         -1.55658        1.46055        1.01008
H         -2.49258       -0.18155       -2.02382
H         -4.37498        0.67495       -1.04342
H         -0.90008        1.42935       -1.34792
H         -3.46878        2.59835       -0.01022
H         -3.94968        1.69885        1.46648
H          0.22592       -0.86285       -1.30902
H         -0.06208       -0.90375        0.44708
H          1.52732        1.23145       -1.04672
H          1.23942        1.19055        0.70928
H          2.40222       -0.99505        0.84898
H          2.69012       -0.95415       -0.90702
H          3.99162        1.14015       -0.64482
H          3.70362        1.09925        1.11128
