12
B3H6N3
N          0.00003       -1.00000        0.00000
B         -0.86607       -0.50000        0.00000
N         -0.86607        0.50000        0.00000
B          0.00003        1.00000        0.00000
N          0.86603        0.50000        0.00000
B          0.86603       -0.50000        0.00000
H          0.00003       -1.62000        0.00000
H         -1.40297       -0.81000        0.00000
H         -1.40297        0.81000        0.00000
H          0.00003        1.62000        0.00000
H          1.40293        0.81000        0.00000
H          1.40293       -0.81000        0.00000
