60
C60
C          0.64813       -3.00334        0.00000
C          0.06583       -2.65644        0.00000
C          1.79823       -2.48844        0.00000
C         -0.00357       -3.09094        0.00000
C          0.85623       -1.92754        0.00000
C         -1.17367       -2.39544        0.00000
C          2.30133       -2.05924        0.00000
C          1.92733       -1.82344        0.00000
C         -1.23687       -2.82974        0.00000
C          0.49823       -2.66384        0.00000
C          0.41173       -0.93334        0.00000
C         -1.82367       -2.48134        0.00000
C         -1.61597       -1.40644        0.00000
C          1.65373       -2.14664        0.00000
C          2.92943       -0.96714        0.00000
C          2.56013       -0.72604        0.00000
C         -1.49617       -2.24124        0.00000
C         -0.42377       -2.13834        0.00000
C          1.04083        0.15976        0.00000
C         -0.82137       -0.67444        0.00000
C         -2.66797       -1.54544        0.00000
C         -2.53947       -0.88124        0.00000
C          1.88293       -1.10734        0.00000
C          3.05933       -0.29894        0.00000
C          2.67053       -0.37884        0.00000
C          2.11903        0.26426        0.00000
C         -2.34367       -1.30094        0.00000
C         -0.19467       -1.09454        0.00000
C          0.19543        1.09406        0.00000
C         -0.95457        0.57856        0.00000
C         -2.92917       -0.95344        0.00000
C         -2.67337        0.37786        0.00000
C          0.95653       -0.58054        0.00000
C          2.92813        0.95456        0.00000
C          2.53803        0.88036        0.00000
C          2.34703        1.30286        0.00000
C         -2.11517       -0.26194        0.00000
C         -1.03847       -0.15834        0.00000
C          0.42453        2.13816        0.00000
C         -1.88237        1.10536        0.00000
C         -3.06207        0.29966        0.00000
C         -2.93537        0.96726        0.00000
C          0.82353        0.67296        0.00000
C          2.66593        1.54606        0.00000
C          1.61623        1.40496        0.00000
C          1.49863        2.24276        0.00000
C         -2.55917        0.72706        0.00000
C         -0.40897        0.93356        0.00000
C         -0.49847        2.66206        0.00000
C         -1.65457        2.14476        0.00000
C         -2.30557        2.05926        0.00000
C          1.82223        2.48216        0.00000
C          1.17383        2.39466        0.00000
C          1.23713        2.83166        0.00000
C         -1.92667        1.82426        0.00000
C         -0.85407        1.92716        0.00000
C          0.00323        3.09086        0.00000
C         -1.80047        2.48876        0.00000
C         -0.06487        2.65586        0.00000
C         -0.64897        3.00316        0.00000
