70
C70
C          0.00000       10.06571        0.00000
C         -0.91670        6.26571        0.00000
C          3.66670        8.26571        0.00000
C          4.58330        5.91571        0.00000
C          0.00000       -0.08429        0.00000
C         -0.68750        4.06571        0.00000
C          1.00000        2.26571        0.00000
C          0.91670       -5.93429        0.00000
C          1.00000        0.26571        0.00000
C          1.65000       -3.73429        0.00000
C          2.00000       -1.93429        0.00000
C          0.55000       -4.08429        0.00000
C          0.91670        6.06571        0.00000
C          2.06250        3.91571        0.00000
C          0.00000        7.91571        0.00000
C          0.68750        3.71571        0.00000
C          2.00000        2.06571        0.00000
C          0.00000        1.91571        0.00000
C          2.00000        0.06571        0.00000
C          0.00000       -2.08429        0.00000
C         -4.58330        5.71571        0.00000
C         -4.81250        3.71571        0.00000
C         -5.00000        1.71571        0.00000
C         -3.00000        2.26571        0.00000
C         -3.43750        3.91571        0.00000
C         -3.66670        7.71571        0.00000
C         -4.00000        1.91571        0.00000
C         -5.00000       -0.28429        0.00000
C         -3.00000        0.26571        0.00000
C          2.75000        5.71571        0.00000
C         -5.00000       -2.28429        0.00000
C         -4.00000       -2.08429        0.00000
C          3.00000        1.71571        0.00000
C         -4.95000       -4.28429        0.00000
C         -4.00000       -0.08429        0.00000
C         -2.06250        4.26571        0.00000
C         -3.00000       -1.73429        0.00000
C          0.00000       -8.08429        0.00000
C         -3.85000       -4.08429        0.00000
C         -2.00000        0.06571        0.00000
C         -2.00000        2.06571        0.00000
C         -2.75000        5.91571        0.00000
C         -2.00000       -1.93429        0.00000
C          3.00000       -0.28429        0.00000
C          3.43750        4.26571        0.00000
C          4.00000        1.91571        0.00000
C         -1.00000        1.71571        0.00000
C         -1.00000       -0.28429        0.00000
C          4.00000       -0.08429        0.00000
C          4.81250        4.06571        0.00000
C          5.00000        2.26571        0.00000
C         -1.65000       -3.93429        0.00000
C         -1.00000       -2.28429        0.00000
C         -0.91670       -5.73429        0.00000
C          3.66670       -7.73429        0.00000
C         -0.55000       -4.28429        0.00000
C          4.00000       -2.08429        0.00000
C          2.75000       -6.28429        0.00000
C          5.00000        0.26571        0.00000
C          4.95000       -4.08429        0.00000
C          5.00000       -1.73429        0.00000
C          3.85000       -4.28429        0.00000
C          2.75000       -3.93429        0.00000
C          4.58330       -6.08429        0.00000
C          1.00000       -1.73429        0.00000
C          3.00000       -2.28429        0.00000
C         -2.75000       -3.73429        0.00000
C         -3.66670       -8.28429        0.00000
C         -2.75000       -6.08429        0.00000
C         -4.58330       -6.28429        0.00000
