24
C9H8Cl3NO2S
O          0.92274        1.93572        0.00000
O          0.92274       -1.57488        0.00000
C         -1.20016        1.18042        0.00000
C         -1.20016       -0.81958        0.00000
C          0.61214        0.98512        0.00000
C          0.61214       -0.62428        0.00000
Cl         3.19574       -1.55168        0.00000
Cl         3.56174       -0.18558        0.00000
Cl         1.82974       -1.18558        0.00000
C         -2.06616        0.68042        0.00000
C         -2.06616       -0.31958        0.00000
C         -0.33406        0.68042        0.00000
C         -0.33406       -0.31958        0.00000
C          2.69574       -0.68558        0.00000
N          1.19574        0.18042        0.00000
S          2.19574        0.18042        0.00000
H         -0.26846        1.29692        0.00000
H         -0.26846       -0.93608        0.00000
H         -0.80156        1.65532        0.00000
H         -1.59866        1.65532        0.00000
H         -1.59866       -1.29448        0.00000
H         -0.80156       -1.29448        0.00000
H         -2.60306        0.99042        0.00000
H         -2.60306       -0.62958        0.00000
