14
C6H6O2
C          0.14724        0.74500        0.00000
O          0.14724        1.74500        0.00000
C         -0.71876        0.24500        0.00000
O         -1.58486        0.74500        0.00000
C         -0.71876       -0.75500        0.00000
C          0.14724       -1.25500        0.00000
C          1.01324       -0.75500        0.00000
C          1.01324        0.24500        0.00000
H          0.68414        2.05500        0.00000
H         -2.12176        0.43500        0.00000
H         -1.25576       -1.06500        0.00000
H          0.14724       -1.87500        0.00000
H          1.55014       -1.06500        0.00000
H          1.55014        0.55500        0.00000
