51
C20H28O3
C         -3.51595       -0.51478       -1.38912
C          0.42485       -3.22518       -1.72082
C         -0.53505        3.59852       -1.05302
O          5.07995        1.16982       -1.13432
C         -1.75325       -2.27708       -0.08032
C          1.49275       -0.78908        1.17288
C         -0.54055       -2.85338        0.65378
C          1.14315        2.61572        0.68758
C         -3.49115        1.05952        0.69198
C         -2.65165        2.24552        0.21178
C          3.75145        0.09582        0.51548
C         -3.03125       -0.19828        0.00228
C          4.02145        1.08072       -0.54372
C         -0.26525        2.75232        0.16348
O          1.95635       -3.11928        0.29208
O          2.96045        1.86972       -0.78172
C         -2.20935       -1.01768        0.61078
C         -1.25115        2.12482        0.75498
C          1.73345       -1.73788       -0.00172
C          2.37345        0.44862        1.05178
C          1.81555        1.42692        0.00338
C          0.67925       -2.81388       -0.27032
C          4.54475       -0.89398        0.91798
H         -1.47905       -2.04738       -1.10992
H         -2.56205       -3.00778       -0.07462
H          0.44585       -0.48588        1.18108
H          1.72415       -1.30498        2.10468
H          2.25345       -1.30738       -0.85572
H         -0.34005       -2.26018        1.54598
H         -0.74575       -3.88458        0.94118
H         -1.86015       -0.79168        1.60678
H          2.47335        0.94802        2.01738
H          1.10665        0.91352       -0.64752
H          1.70275        3.52562        0.47078
H          1.11695        2.45002        1.76458
H         -1.06115        1.52202        1.63228
H         -3.37515        0.94552        1.76978
H         -4.54035        1.23912        0.45738
H         -2.61935        2.25002       -0.87772
H         -3.09945        3.17422        0.56538
H         -2.83215       -0.08188       -2.11932
H         -3.55405       -1.59578       -1.52342
H         -4.51205       -0.09568       -1.53102
H          0.07575       -2.36188       -2.28732
H          1.34995       -3.59828       -2.16032
H         -0.33255       -4.00858       -1.74882
H         -1.59885        3.56702       -1.28882
H         -0.23765        4.62782       -0.85282
H          0.03585        3.21302       -1.89772
H          5.50755       -1.03848        0.45068
H          4.22555       -1.55288        1.71208
