16
C7H7ClO
Cl        -2.95833        0.10042       -0.03899
C         -1.29223       -0.38708       -0.04619
C         -0.29293        0.56812       -0.05699
C          1.03817        0.17742       -0.06269
C          1.36297       -1.17128       -0.05749
C          0.36097       -2.12258       -0.04669
C         -0.96483       -1.73178       -0.03529
O          2.02237        1.11442       -0.07379
C         -0.64923        2.03242       -0.06299
H          2.39867       -1.47748       -0.06229
H          0.61397       -3.17248       -0.04309
H         -1.74653       -2.47698       -0.02649
H          2.31247        1.39052        0.80641
H         -0.72943        2.39112        0.96311
H          0.12667        2.59302       -0.58429
H         -1.60273        2.17222       -0.57229
