11
Cl2H6N2Pt
Pt       -25.92089        0.14760       -0.00215
N          1.27241        0.40400       -0.11905
N         11.93351       -0.30600        0.10005
Cl       -17.26379        0.38290       -0.02345
H          0.52801        0.59060        0.53595
H          1.86921       -0.33850        0.21355
H          0.90401        0.18970       -1.03365
H         11.18901       -0.11950        0.75515
H         12.53021       -1.04860        0.43275
H         11.56511       -0.52040       -0.81445
Cl        -8.60679        0.61820       -0.04475
