43
C18H21NO3
C          0.57260        0.94162       -0.83824
C          1.68550        1.28212        0.12456
C         -0.42710        2.04132       -1.17944
C          2.32360       -0.01668        0.59766
C         -0.87600        2.78212        0.08536
C         -1.03290       -1.75388        1.27666
C         -2.30990       -1.60958        0.75876
C          3.61310       -1.91708       -0.17924
C         -4.89420       -1.42848       -0.12864
H         -2.38630        2.52932        1.41066
C         -2.64560       -0.65738       -0.20224
O         -2.03320        2.12512        0.60626
O         -3.91740       -0.53598       -0.66834
C         -1.61610        0.16702       -0.66524
O         -1.60110        1.21602       -1.51974
C          1.25430        2.18992        1.21606
C          0.14500        2.85652        1.16136
C          1.17810        0.27342       -2.07584
C          1.88020       -1.00728       -1.59904
C          1.39320       -0.94938        1.35516
C         -0.00580       -0.94138        0.82996
N          2.88530       -0.70468       -0.57724
C         -0.33930       -0.05038       -0.16094
H          2.44370        1.81902       -0.44544
H         -0.09650        2.69532       -1.98634
H          3.14790        0.23582        1.26466
H          0.39000        0.02292       -2.78584
H          1.90140        0.94202       -2.54264
H          1.88630        2.29852        2.08506
H         -1.15480        3.79872       -0.19194
H          1.13840       -1.68798       -1.18114
H          2.36640       -1.48668       -2.44874
H          1.78580       -1.96418        1.28986
H          1.37530       -0.65058        2.40326
H         -0.83880       -2.50208        2.03106
H         -0.05710        3.53322        1.97836
H         -3.08560       -2.26958        1.11816
H          2.90930       -2.65068        0.21396
H          4.12610       -2.33378       -1.04604
H          4.34390       -1.66618        0.58956
H         -4.60200       -2.45728       -0.33924
H         -4.96230       -1.28358        0.94956
H         -5.86320       -1.22538       -0.58444
