56
C21H30O5
C          0.78909       -1.27911       -0.52511
C         -0.50441       -1.04261        0.23249
C          1.69839       -0.04611       -0.27361
C         -1.18711        0.18409       -0.39581
C          3.06669       -0.51441       -0.75811
C         -2.47191        0.47829        0.38019
C         -0.27981        1.40999       -0.36331
C          4.70089        1.48239       -0.36361
C          1.75559        0.25879        1.22459
C         -2.05741        0.74269        1.82909
H          4.08319       -0.48781       -2.50951
H          0.49529        2.57679        1.09929
H          6.11429        2.74609        0.34809
O          4.59829       -0.41481        1.02889
O         -6.37421        0.64459       -0.61871
C          1.66689       -2.42291       -0.00531
C         -1.41461       -2.26471        0.10939
C          1.08239        1.12429       -1.01551
C          3.07769       -2.04721       -0.53511
C         -2.70841       -2.03501        0.89909
C         -3.14481        1.73899       -0.10521
C         -4.19591        1.45859       -1.17871
O          3.23059       -0.21281       -2.14521
O         -0.07331        1.80159        0.99539
O          5.71919        1.88769        0.55329
C          4.15829        0.13869        0.04999
C         -5.17641        0.45159       -0.60771
C         -4.59101       -0.77091       -0.03991
C         -3.33401       -0.74551        0.39439
H          0.58869       -1.39371       -1.59031
H         -0.28371       -0.84241        1.28099
H         -1.43671       -0.03591       -1.43371
H          1.65899       -2.45061        1.08429
H          1.34129       -3.37751       -0.41881
H         -1.65621       -2.43181       -0.94031
H         -0.90001       -3.14051        0.50469
H          1.72649        1.99939       -0.92841
H          0.94439        0.86689       -2.06571
H          2.33949       -0.51041        1.72999
H          2.22349        1.23099        1.37989
H          0.74439        0.27319        1.63129
H          3.27279       -2.56081       -1.47651
H          3.83669       -2.31281        0.20079
H         -0.76511        2.22609       -0.89861
H         -3.39361       -2.86681        0.73579
H         -2.48181       -1.94481        1.96139
H         -3.62571        2.23089        0.74029
H         -2.38851        2.40709       -0.51711
H         -1.67511        1.75959        1.91779
H         -2.92161        0.62109        2.48219
H         -1.28021        0.03569        2.11939
H          3.89509        2.21649       -0.35951
H          5.12229        1.41109       -1.36641
H         -5.17361       -1.67801        0.02349
H         -4.71891        2.38029       -1.43401
H         -3.71691        1.04599       -2.06661
