24
C9H13O2
O        -12.95130       -0.05699       -0.01070
O        -11.99070       -1.16799       -0.04320
C          1.69940       -0.15529        0.17840
C          1.71520       -1.39809        0.78330
C          2.77400       -2.25959        0.56520
C          3.81690       -1.87839       -0.25830
C          3.80070       -0.63599       -0.86390
C          2.74250        0.22611       -0.64470
C          0.54210        0.78141        0.41120
C          1.05350        2.07571        1.04700
C         -0.13200        1.10101       -0.92460
H        -11.21700       -1.00279       -0.59920
H          0.90040       -1.69589        1.42670
H          2.78670       -3.23039        1.03840
H          4.64450       -2.55119       -0.42810
H          4.61580       -0.33789       -1.50670
H          2.73000        1.19701       -1.11760
H         -0.17900        0.30921        1.07830
H          1.77460        2.54801        0.37990
H          0.21640        2.75321        1.21540
H          1.53370        1.84801        1.99860
H         -0.96910        1.77851       -0.75620
H          0.58910        1.57331       -1.59170
H         -0.49630        0.17901       -1.37750
