10
C4H3NO2
C         -2.68098       -0.16240        0.00000
N         -3.68118        0.37620       -0.00000
O         -1.48798       -0.80480        0.00000
C         -0.42028        0.02030        0.00000
C          0.93892       -0.53720       -0.00000
C          1.99212        0.27680        0.00000
O         -0.58308        1.22460        0.00000
H          1.08352       -1.60750       -0.00000
H          1.84752        1.34710        0.00000
H          2.99142       -0.13310       -0.00000
