9
C3H6
C          0.57731        0.00000        0.00000
C         -0.28869       -0.50000        0.00000
C         -0.28869        0.50000        0.00000
H          0.97591       -0.47490        0.00000
H          0.97591        0.47490        0.00000
H         -0.89929       -0.60770        0.00000
H         -0.07659       -1.08260        0.00000
H         -0.07659        1.08260        0.00000
H         -0.89929        0.60770        0.00000
