81
C27H42N6O6
C         -1.30542       -0.81788        0.00000
C          2.73908       -0.79568        0.00000
C          0.05648        1.85522        0.00000
C          0.78248       -2.44288        0.00000
C          1.49588        1.41222        0.00000
C         -2.39472        0.85952        0.00000
C         -0.55702       -0.15658        0.00000
C          3.54808       -0.20798        0.00000
C         -0.75692        2.43462        0.00000
C          4.49908       -0.51698        0.00000
C         -0.68292        0.83552        0.00000
C         -0.73542        3.43442        0.00000
C         -4.10992        0.61842        0.00000
C          1.31768       -4.09018        0.00000
C         -0.37652       -3.72998        0.00000
C          1.28488       -0.30688        0.00000
C         -0.08032        0.38872        0.00000
C         -3.46112        2.22432        0.00000
H         -3.46782       -0.06398        0.00000
H          2.22378        2.72812        0.00000
H          2.03108       -2.95788        0.00000
O          3.36308       -2.32868        0.00000
O         -2.75802       -1.76118        0.00000
O          0.41668        3.54942        0.00000
C         -3.32192        1.23412        0.00000
C          0.89408        0.61362        0.00000
C          0.57458       -3.42098        0.00000
O         -1.59462        1.89062        0.00000
O          3.23908        0.74312        0.00000
O          0.33288       -0.60998        0.00000
C          2.53108       -1.77388        0.00000
C         -2.30412       -0.87018        0.00000
C          0.72568        2.59832        0.00000
N         -2.84872       -0.03148        0.00000
N          1.70378        2.39042        0.00000
N          1.78108       -2.39048        0.00000
C          0.23778       -1.60418        0.00000
C          2.23908        0.74312        0.00000
C         -1.39612        0.91182        0.00000
N         -0.76082       -1.65648        0.00000
N          1.92998       -0.20798        0.00000
N         -0.94212        1.80282        0.00000
H         -1.94242       -1.38068        0.00000
H          3.45188       -1.25868        0.00000
H         -0.03632        2.70012        0.00000
H          0.19278       -2.63448        0.00000
H          0.87678        1.37982        0.00000
H         -2.58632        1.44912        0.00000
H         -0.04982        0.20012        0.00000
H          3.98648        0.23052        0.00000
H         -1.29862        2.73632        0.00000
H         -2.83332        1.61582        0.00000
H          0.55638        1.13362        0.00000
H          1.16418       -3.22938        0.00000
H          4.30748       -1.10658        0.00000
H          5.08878       -0.70858        0.00000
H          4.69068        0.07272        0.00000
H         -0.06782        0.91352        0.00000
H         -0.76092        1.45062        0.00000
H         -1.29792        0.75742        0.00000
H         -0.11562        3.42112        0.00000
H         -0.72212        4.05422        0.00000
H         -1.35532        3.44772        0.00000
H         -4.49162        1.10702        0.00000
H         -4.59852        0.23672        0.00000
H         -3.72822        0.12992        0.00000
H          0.90288       -4.55088        0.00000
H          1.77848       -4.50498        0.00000
H          1.73258       -3.62938        0.00000
H         -0.56812       -3.14038        0.00000
H         -0.96612       -3.92158        0.00000
H         -0.18492       -4.31968        0.00000
H          0.71418       -0.54918        0.00000
H          1.52718       -0.87758        0.00000
H          1.85558       -0.06458        0.00000
H         -0.21982        0.99282        0.00000
H         -0.68452        0.24932        0.00000
H          0.05908       -0.21538        0.00000
H         -2.84712        2.31062        0.00000
H         -3.54732        2.83832        0.00000
H         -4.07502        2.13812        0.00000
