28
C14H9Cl5
C         -1.45372       -1.18286        0.00000
C          0.27838       -1.18286        0.00000
C          1.14438        0.31714        0.00000
C          0.27838        1.81714        0.00000
C         -1.45372       -2.18286        0.00000
C          0.27838       -2.18286        0.00000
C          2.01038        0.81714        0.00000
C          1.14438        2.31714        0.00000
C         -0.58762       -0.68286        0.00000
C          0.27838        0.81714        0.00000
C         -0.58762       -2.68286        0.00000
C          2.01038        1.81714        0.00000
C         -0.58762        0.31714        0.00000
Cl        -2.31972        1.31714        0.00000
Cl        -0.95372        1.68314        0.00000
Cl        -1.95372       -0.04886        0.00000
Cl        -0.58762       -3.68286        0.00000
Cl         2.87648        2.31714        0.00000
C         -1.45372        0.81714        0.00000
H         -0.58762        0.93714        0.00000
H         -1.99062       -0.87286        0.00000
H          0.81528       -0.87286        0.00000
H          1.14438       -0.30286        0.00000
H         -0.25862        2.12714        0.00000
H         -1.99062       -2.49286        0.00000
H          0.81528       -2.49286        0.00000
H          2.54738        0.50714        0.00000
H          1.14438        2.93714        0.00000
