22
C10Cl12
Cl        -1.03195       -0.60464        0.00000
Cl        -0.37915        2.44026        0.00000
Cl         0.35965       -2.40414        0.00000
Cl         0.99385       -0.28814        0.00000
Cl        -1.41025       -1.54554        0.00000
Cl         1.53155       -1.10654        0.00000
Cl        -1.33135        1.41556        0.00000
Cl         1.39365        1.61056        0.00000
Cl        -1.81285       -0.43494        0.00000
Cl        -1.77085        0.44076        0.00000
Cl         1.72395        0.70556        0.00000
Cl         1.71995       -0.46994        0.00000
C         -0.12715       -0.17894        0.00000
C         -0.15435        1.46586        0.00000
C          0.14595       -1.42724        0.00000
C          0.13305        0.22076        0.00000
C         -0.61475       -0.93964        0.00000
C          0.63355       -0.66654        0.00000
C         -0.63315        0.69966        0.00000
C          0.61185        0.98696        0.00000
C         -0.89405       -0.04014        0.00000
C          0.91295        0.12046        0.00000
