28
C8H18O2
C         -1.85350       -0.00000       -0.00550
C         -2.06520       -1.24920       -0.86310
C         -2.06520        1.24920       -0.86310
C         -2.85450        0.00000        1.15150
O         -0.52290        0.00000        0.51580
O          0.52290       -0.00000       -0.51580
C          1.85350        0.00000        0.00550
C          2.06520       -1.24920        0.86310
C          2.85450       -0.00000       -1.15150
C          2.06520        1.24920        0.86310
H         -1.35200       -1.24920       -1.68740
H         -1.91440       -2.13920       -0.25210
H         -3.08010       -1.24920       -1.26070
H         -3.08010        1.24920       -1.26080
H         -1.91440        2.13920       -0.25220
H         -1.35200        1.24920       -1.68740
H         -2.70370       -0.89000        1.76250
H         -2.70370        0.89000        1.76250
H         -3.86940        0.00000        0.75390
H          1.91440       -2.13920        0.25220
H          3.08010       -1.24920        1.26080
H          1.35200       -1.24920        1.68740
H          2.70370        0.89000       -1.76250
H          3.86940       -0.00000       -0.75390
H          2.70370       -0.89000       -1.76250
H          1.35200        1.24920        1.68740
H          3.08010        1.24920        1.26070
H          1.91440        2.13920        0.25210
