9
C2H6S
C          0.86606       -0.01333        0.00000
S         -0.00004       -0.51333        0.00000
C         -0.86604       -0.01333        0.00000
H          1.17606       -0.55023        0.00000
H          1.40296        0.29667        0.00000
H          0.55606        0.52357        0.00000
H         -0.55604        0.52357        0.00000
H         -1.40294        0.29667        0.00000
H         -1.17604       -0.55023        0.00000
