19
C7H6N2O4
N         -2.67209       -0.07198       -0.00204
O         -3.54599       -0.92038       -0.00284
O         -2.96979        1.10902        0.00356
C         -1.24819       -0.47628       -0.00154
C         -0.25619        0.48672       -0.00054
C          1.07341        0.10922       -0.00014
C          1.41141       -1.23138       -0.00034
C          0.41971       -2.19408       -0.00034
C         -0.91029       -1.81648        0.00366
C          2.15471        1.15892       -0.00014
N         -0.61799        1.92202       -0.00044
O         -0.76759        2.51222        1.05446
O         -0.76609        2.51282       -1.05514
H          2.45031       -1.52638       -0.00074
H          0.68371       -3.24128       -0.00084
H         -1.68529       -2.56868        0.00356
H          2.41521        1.41222        1.02756
H          3.03541        0.77332       -0.51364
H          1.79561        2.05052       -0.51414
