12
C6H6
C         -1.94311       -0.54830       -0.00062
C         -2.89801        0.38170       -0.00032
C         -0.56491       -0.15940       -0.00042
C          0.56489        0.15940       -0.00032
C          1.94309        0.54830       -0.00012
C          2.89799       -0.38170       -0.00042
H         -2.20881       -1.59510        0.00348
H         -3.93751        0.08850       -0.00042
H         -2.63231        1.42850        0.00008
H          2.20889        1.59510        0.00027
H          3.93749       -0.08850       -0.00032
H          2.63229       -1.42850       -0.00082
