10
C2CaMgO6
O          0.96568       -2.81923        0.00000
C          0.25858       -2.11213        0.00000
O          0.25858       -1.11213        0.00000
O         -0.74142       -2.11213        0.00000
O          0.96568        0.88787        0.00000
C          0.25858        1.59497        0.00000
O          0.25858        2.59497        0.00000
O         -0.74142        1.59497        0.00000
Mg        -0.74142       -1.11213        0.00000
Ca        -0.74142        2.59497        0.00000
