26
C9H13NO3
C          0.88267        0.21371       -0.99071
C         -1.40633       -0.78149       -0.81541
C         -1.05973        1.44821       -0.00871
C         -2.39043        1.52831        0.35749
C          1.71787       -0.21749        0.21649
C          3.96677       -0.70969        0.96649
H          1.25057        2.19401       -0.78001
H         -3.60473       -2.39309        0.06729
H          3.25847       -0.91899       -0.95511
H         -4.72223        0.23141        1.40109
C         -0.56883        0.29581       -0.59391
C         -2.74113       -0.70779       -0.45071
C         -3.23523        0.45211        0.13829
O          1.32587        1.49461       -1.44351
O         -3.56643       -1.76649       -0.66821
O         -4.54443        0.52911        0.49839
N          3.13277       -0.29749       -0.17031
H         -1.02133       -1.67889       -1.27671
H         -0.40243        2.28781        0.16229
H          0.99947       -0.51549       -1.79241
H         -2.77133        2.42951        0.81479
H          1.60107        0.51171        1.01819
H          1.37977       -1.19449        0.56189
H          3.86557        0.01611        1.77339
H          3.64437       -1.69009        1.31709
H          5.00937       -0.76089        0.65259
