42
C18H22O2
C          2.65212        1.67832        0.02590
C          3.86412       -0.79668        0.13470
C          4.02632        1.59702        0.13160
C         -2.23718        0.26932       -1.62760
H          6.44672        0.22692       -0.55620
C          4.63432        0.35152        0.18700
O         -4.55548        1.42342        0.40300
C         -2.59588       -1.63038        0.48060
C          0.22042       -1.81698       -0.28760
C         -1.69928        2.00662        0.07990
C         -4.00038       -0.97198        0.39570
C         -0.21268        1.88912        0.46390
C          1.71892       -2.01538       -0.03950
O          5.98652        0.25962        0.29360
C         -3.77168        0.52832        0.24790
C          1.88352        0.52962       -0.02120
C          2.47992       -0.71878        0.02490
C         -1.67788       -0.42998        0.75610
C         -0.21718       -0.60618        0.52440
C          0.38932        0.63512       -0.13920
C         -2.30988        0.64862       -0.14650
H         -1.83048       -0.13128        1.81620
H          0.27002       -0.69988        1.51950
H          0.17772        0.61212       -1.20560
H         -2.55408       -2.34018        1.30950
H         -2.33718       -2.12638       -0.45110
H          0.04722       -1.64838       -1.34910
H         -0.32168       -2.70398        0.04080
H         -2.24138        2.52292        0.88390
H         -1.79878        2.61372       -0.82770
H         -2.87188       -0.59738       -1.81230
H         -2.58068        1.10712       -2.23450
H         -1.20728        0.02812       -1.89080
H         -4.53868       -1.35538       -0.47170
H         -4.56458       -1.17608        1.30460
H          0.32082        2.77152        0.09790
H         -0.11928        1.86012        1.55350
H          1.84682       -2.54848        0.90490
H          2.12832       -2.62938       -0.84280
H          2.18462        2.65082       -0.02400
H          4.34332       -1.76388        0.17990
H          4.62242        2.49682        0.16730
