11
C3H6O2
C         -0.19971       -0.63998       -0.00000
C         -1.43951        0.25652       -0.00000
C          1.03999        0.21692       -0.00000
O          0.94189        1.42122       -0.00000
O          2.25309       -0.35758       -0.00000
H         -0.20631       -1.26928        0.89000
H         -0.20631       -1.26928       -0.89000
H         -1.43281        0.88582        0.89000
H         -1.43281        0.88582       -0.89000
H         -2.33611       -0.36328       -0.00000
H          3.01859        0.23312        0.00000
