26
C16H10
C         -0.78807       -2.37040        0.00027
C         -2.18267       -2.39700        0.00097
C         -2.96127       -1.23490        0.00057
C         -2.31817        0.00000       -0.00033
C         -2.96127        1.23480       -0.00083
C         -2.18267        2.39700       -0.00073
C         -0.78817        2.37040       -0.00053
C         -0.10297        1.15610       -0.00033
C          1.30853        0.74200        0.00047
C          2.44523        1.39520        0.00217
C          3.72123        0.65810        0.00087
C          3.72123       -0.65810       -0.00113
C          2.44523       -1.39520       -0.00193
C          1.30853       -0.74200       -0.00103
C         -0.10297       -1.15610       -0.00033
C         -0.85517        0.00000       -0.00043
H         -0.23457       -3.29780        0.00467
H         -2.68207       -3.35460        0.00147
H         -4.03967       -1.29430        0.00067
H         -4.03967        1.29430       -0.00153
H         -2.68217        3.35460       -0.00133
H         -0.23467        3.29780       -0.00083
H          2.44643        2.47520        0.00407
H          4.65663        1.19790        0.00117
H          4.65663       -1.19790       -0.00263
H          2.44643       -2.47520       -0.00353
