23
C13H10
C         -2.55960        1.12095        0.00082
C         -3.46540        0.07495        0.00002
C         -3.01450       -1.23275       -0.00038
C         -1.66150       -1.50165        0.00002
C         -0.74190       -0.45125        0.00032
C          0.74200       -0.45125        0.00022
C          1.66150       -1.50155        0.00022
C          3.01450       -1.23275        0.00012
C          3.46530        0.07485        0.00002
C          2.55960        1.12095        0.00002
C          1.20550        0.86155        0.00012
C          0.00000        1.76925       -0.00028
C         -1.20550        0.86155        0.00072
H         -2.91360        2.14135       -0.00308
H         -4.52580        0.27975        0.00012
H         -3.72460       -2.04655       -0.00058
H         -1.31380       -2.52415        0.00042
H          1.31390       -2.52415        0.00072
H          3.72460       -2.04655        0.00052
H          4.52570        0.27975        0.00032
H          2.91360        2.14135       -0.00008
H         -0.00040        2.39305        0.89362
H          0.00040        2.39325       -0.89398
