40
C17H18F3NO
C          1.24663        2.33575        1.21744
C          1.12572        2.15755       -1.16716
C          1.40372        3.70475        1.10714
C          1.28283        3.52645       -1.27746
C         -2.18007       -0.85415       -1.48666
C         -1.73457        0.29185        0.57624
C          1.42162        4.30015       -0.14036
C         -3.53598       -0.77765       -1.23326
C         -3.09147        0.36585        0.82504
C          2.29752       -0.61315        0.05604
C          2.14322       -2.11535        0.30174
C          3.34072       -4.21785        0.39274
H          3.85772       -2.57815       -0.73976
C          1.10733        1.56225        0.08034
C         -1.27517       -0.31905       -0.58146
C         -3.99128       -0.16825       -0.07866
O          0.05922       -0.39345       -0.82826
C          0.93602        0.06985        0.20054
F         -5.87617       -1.21765        0.91134
F         -5.74328        1.06275        0.94544
F         -6.16708       -0.02745       -1.01696
C         -5.47098       -0.08615        0.19524
N          3.45043       -2.77105        0.16304
H          0.51102       -0.16975        1.17534
H          2.99273       -0.19535        0.78424
H          2.68222       -0.44715       -0.95016
H          1.23723        1.87015        2.19184
H          1.01683        1.55315       -2.05556
H          1.75852       -2.28125        1.30804
H          1.44803       -2.53315       -0.42646
H          1.51212        4.30915        1.99554
H          1.29753        3.99155       -2.25206
H         -1.82468       -1.33425       -2.38646
H         -1.03208        0.70895        1.28264
H          1.54363        5.36975       -0.22646
H         -4.24078       -1.19385       -1.93776
H         -3.44968        0.84105        1.72634
H          4.32252       -4.67845        0.28384
H          2.96432       -4.39835        1.39964
H          2.65382       -4.65015       -0.33486
