23
C6H10O7
O          3.13951       -0.23087        0.00000
C          2.27351        0.26913        0.00000
C          1.40751       -0.23087        0.00000
H          0.87051       -0.54087        0.00000
O          1.40751       -1.23087        0.00000
C          0.54141        0.26913        0.00000
H          1.07841        0.57913        0.00000
O          0.54141        1.26913        0.00000
C         -0.32459       -0.23087        0.00000
H          0.21231       -0.54087        0.00000
O         -0.32459       -1.23087        0.00000
C         -1.19059        0.26913        0.00000
H         -0.65369        0.57913        0.00000
O         -1.19059        1.26913        0.00000
C         -2.05659       -0.23087        0.00000
O         -2.05659       -1.23087        0.00000
O         -2.92269        0.26913        0.00000
H          2.27351        0.88913        0.00000
H          1.94441       -1.54087        0.00000
H          1.07841        1.57913        0.00000
H         -0.86149       -1.54087        0.00000
H         -1.72749        1.57913        0.00000
H         -3.45959       -0.04087        0.00000
