24
C6H12O6
O         -4.25158       -0.30368       -0.50744
C         -3.39758       -0.77648        0.20356
C         -2.20408        0.05322        0.60146
H         -2.17098        0.14492        1.68706
O         -2.31098        1.35272        0.01666
C         -0.92438       -0.62458        0.10756
H         -0.79678       -1.57778        0.62056
O         -1.01758       -0.85008       -1.30044
C          0.27632        0.27722        0.40126
H          0.40052        0.37712        1.47946
O          0.05572        1.56652       -0.17434
C          1.53862       -0.34158       -0.20244
H          1.41442       -0.44148       -1.28074
O          1.75922       -1.63078        0.37306
C          2.73922        0.56022        0.09116
O          3.89592        0.04372       -0.57024
H         -3.49128       -1.79238        0.55786
H         -2.34548        1.34752       -0.94974
H         -1.13248       -0.04338       -1.82124
H         -0.06358        1.55362       -1.13384
H          1.87852       -1.61798        1.33266
H          2.53372        1.56782       -0.27004
H          2.91782        0.58892        1.16606
H          4.69672        0.56672       -0.42794
