20
C5H10N2O3
N          1.44914        1.63670       -0.26939
C          1.39123        0.29000        0.31461
H          1.34913        0.36670        1.40111
C          0.14294       -0.43350       -0.19439
C         -1.10716        0.28420        0.31851
C         -2.33676       -0.42840       -0.18289
N         -3.56147        0.02871        0.14531
O         -2.22426       -1.41329       -0.88159
C          2.61984       -0.48490       -0.08699
O          3.26643       -0.13720       -1.04669
O          2.99574       -1.56120        0.62141
H          1.48884        1.59261       -1.27669
H          0.66863        2.19771        0.03741
H          0.14123       -0.43200       -1.28439
H          0.14594       -1.46159        0.16761
H         -1.10546        0.28270        1.40851
H         -1.11016        1.31231       -0.04349
H         -3.65136        0.81641        0.70411
H         -4.35287       -0.43000       -0.17749
H          3.79043       -2.02599        0.32541
