17
C5H8O4
C          2.47970        0.29895       -0.00147
C          1.24920       -0.57115       -0.00147
C          0.00000        0.31225       -0.00047
C         -1.24920       -0.57115       -0.00047
C         -2.47970        0.29895        0.00053
O         -2.36880        1.50205        0.00123
O         -3.69880       -0.26275        0.00073
O          2.36880        1.50205       -0.00077
O          3.69880       -0.26275        0.00323
H          1.24890       -1.19995       -0.89187
H          1.24960       -1.20095        0.88813
H          0.00040        0.94105        0.88993
H         -0.00040        0.94205       -0.89007
H         -1.24960       -1.19995       -0.89077
H         -1.24890       -1.20095        0.88913
H         -4.45810        0.33615        0.00143
H          4.45810        0.33615        0.00303
