6
CaO4S
O         -2.93520        0.86800        0.15400
O         -1.52160       -0.73430        1.25330
O         -1.99240       -0.95720       -1.09260
O         -0.57880        0.82350       -0.31470
S         -1.75700        0.00000       -0.00000
Ca         8.78500       -0.00000       -0.00000
