12
C6Cl6
C          0.04550       -1.38350       -0.00155
C         -1.17540       -0.73120       -0.00095
C          1.22090       -0.65230       -0.00145
C          1.17540        0.73120       -0.00025
C         -0.04550        1.38350        0.00035
C         -1.22090        0.65230       -0.00025
Cl         0.10260       -3.11860        0.00485
Cl         2.75210       -1.47040       -0.00215
Cl         2.64950        1.64820        0.00095
Cl        -0.10260        3.11860        0.00175
Cl        -2.75210        1.47040        0.00045
Cl        -2.64950       -1.64820       -0.00175
