11
C5Cl6
Cl         0.03672        2.13612        1.47981
C          0.01902        1.10652       -0.00019
C          1.20372        0.16642        0.00011
C          0.71412       -1.07038        0.00021
C         -0.75108       -1.04498        0.00001
C         -1.19748        0.20802       -0.00019
Cl        -2.85788        0.71472       -0.00049
Cl        -1.76388       -2.45488       -0.00039
Cl         1.67752       -2.51448        0.00001
Cl         2.88062        0.61522        0.00021
Cl         0.03862        2.13772       -1.47909
