12
C6Cl6
Cl        -3.05140        0.65190       -0.00238
C         -1.35370        0.28920       -0.00168
C         -0.42640        1.31700       -0.00028
C          0.92730        1.02780        0.00032
C          1.35370       -0.28920       -0.00008
C          0.42640       -1.31700       -0.00058
C         -0.92730       -1.02780        0.00322
Cl        -2.09030       -2.31660        0.00262
Cl         0.96110       -2.96860       -0.00178
Cl         3.05140       -0.65190       -0.00058
Cl         2.09030        2.31660        0.00092
Cl        -0.96110        2.96860        0.00032
