6
F5I
I         -0.00000        0.00000       -0.31833
F         -1.35060        1.35050       -0.31833
F          1.35060       -1.35050       -0.31833
F          1.35050        1.35060       -0.31833
F         -1.35050       -1.35060       -0.31833
F          0.00000       -0.00000        1.59167
