14
C4H10
C         -0.30700        1.40939       -0.07284
C         -0.00000       -0.00001        0.43716
C         -1.06710       -0.97061       -0.07284
C          1.37410       -0.43881       -0.07284
H         -0.30700        1.40939       -1.16284
H         -1.28600        1.72209        0.29046
H          0.45320        2.10089        0.29046
H         -0.00000       -0.00001        1.52716
H         -1.06710       -0.97061       -1.16284
H         -0.84840       -1.97471        0.29046
H         -2.04610       -0.65801        0.29046
H          2.13440        0.25269        0.29046
H          1.59290       -1.44291        0.29046
H          1.37410       -0.43881       -1.16284
