26
C12H8Cl6
C          1.18101       -1.21326        0.47569
C          0.05031       -0.84956       -0.50151
C         -1.38359       -0.98576        0.07269
C          0.20071        0.69674       -0.64391
C          1.02691        1.05794        0.61539
C         -1.25549        1.20234       -0.59661
Cl        -0.38349       -0.40926        2.67489
Cl         0.85201        2.71804        1.28209
Cl         1.31421       -2.93246        0.99759
Cl         3.66481        1.86184       -0.36291
Cl         3.74581       -1.50236       -0.87611
Cl         2.55661       -0.10146        2.61869
C         -1.77329        0.40744        0.66309
C          2.46171       -0.59826       -0.13991
C          2.43451        0.71584        0.03019
C         -2.17299       -0.84456       -1.26001
C         -2.04719        0.41224       -1.65001
C          1.03231       -0.13846        1.61459
H         -1.61389       -1.87086        0.65529
H         -1.41689        2.28004       -0.58581
H          0.15151       -1.36216       -1.47871
H          0.71891        0.97754       -1.57931
H         -2.70999       -1.63046       -1.75101
H         -2.87429        0.50434        0.74669
H         -1.31799        0.78394        1.54889
H         -2.44219        0.82064       -2.56991
