22
C6H13NO2
N          0.98071        2.01882        0.28245
C          0.99881        0.56542        0.49475
H          0.93391        0.35332        1.56195
C         -0.19259       -0.06998       -0.22485
H         -0.12769        0.14212       -1.29205
C         -0.17379       -1.58378       -0.00365
C         -1.49379        0.51072        0.33235
C         -2.67869       -0.03038       -0.47025
C          2.28041       -0.00658       -0.05405
O          2.91951        0.61572       -0.86905
O          2.71211       -1.20738        0.36255
H          1.72031        2.46912        0.80045
H          1.03981        2.24152       -0.69995
H          0.75321       -1.99748       -0.40065
H         -0.23869       -1.79598        1.06355
H         -1.02249       -2.03648       -0.51635
H         -1.60169        0.22282        1.37815
H         -1.46889        1.59772        0.25545
H         -2.57079        0.25742       -1.51605
H         -2.70359       -1.11738       -0.39335
H         -3.60569        0.38332       -0.07335
H          3.53951       -1.53268       -0.01795
