21
C6H14O
C         -0.86605        0.13714        0.00000
C         -1.73205        0.63714        0.00000
C         -0.86605       -0.86286        0.00000
O          0.00005        0.63714        0.00000
C          0.86605        0.13714        0.00000
C          1.73205        0.63714        0.00000
C          0.86605       -0.86286        0.00000
H         -0.86605        0.75714        0.00000
H         -1.42205        1.17404        0.00000
H         -2.26895        0.94714        0.00000
H         -2.04205        0.10024        0.00000
H         -1.48605       -0.86286        0.00000
H         -0.86605       -1.48286        0.00000
H         -0.24605       -0.86286        0.00000
H          0.86605        0.75714        0.00000
H          2.04205        0.10024        0.00000
H          2.26895        0.94714        0.00000
H          1.42205        1.17404        0.00000
H          0.24605       -0.86286        0.00000
H          0.86605       -1.48286        0.00000
H          1.48605       -0.86286        0.00000
