38
C18H18O2
C          2.34720       -1.83693       -0.25747
C         -1.21900        1.50357       -0.19107
C         -2.56530        1.80427       -0.19447
C          4.01750        1.51307        0.32243
C         -4.11970       -1.62963        0.17863
H          4.96160       -1.44503        0.84313
H         -5.20240        1.26397        0.78433
C          1.61030        0.82177        0.10443
C          2.95710        0.46207        0.11763
C         -3.09500       -0.53173        0.05293
C          3.31850       -0.86353       -0.05837
C         -3.50470        0.78837       -0.07707
C         -1.29980       -2.26193        0.26113
C         -0.03600       -2.54273       -0.54557
O          4.63120       -1.21413       -0.03587
O         -4.83010        1.08737       -0.09047
C          0.63240       -0.16843       -0.08247
C         -0.80650        0.17887       -0.06797
C         -1.75050       -0.83873        0.06793
C          1.01080       -1.49373       -0.27927
C          1.21530        2.23277        0.28483
C          1.64300        3.15567       -0.56717
H          2.63990       -2.86673       -0.40017
H         -2.09120       -2.93653       -0.06557
H         -1.09640       -2.43363        1.31813
H          0.35720       -3.52063       -0.26787
H         -0.28100       -2.54363       -1.60767
H         -0.48730        2.29257       -0.28387
H         -2.88890        2.83037       -0.28807
H          0.57810        2.51387        1.11033
H          4.22370        1.61847        1.38753
H          4.92880        1.21567       -0.19637
H          3.66700        2.46527       -0.07577
H         -4.35410       -1.78893        1.23113
H         -5.02550       -1.34413       -0.35617
H         -3.72060       -2.54973       -0.24807
H          2.28020        2.87457       -1.39267
H          1.35410        4.18787       -0.43517
