21
C10Cl10O
O         -0.00678       -3.41892        0.01721
Cl         1.61172       -0.27122        2.60971
Cl        -1.57978       -0.26402        2.62891
Cl         1.58442       -0.02042       -2.71659
Cl        -1.65488        0.02258       -2.66309
Cl         2.87292        1.59408        0.07271
Cl        -2.86308        1.60718        0.10741
Cl         2.84642       -1.90062       -0.11979
Cl        -2.85468       -1.88782       -0.08529
Cl         0.03472        2.86888        1.64261
Cl         0.00582        3.04608       -1.32659
C         -0.00438       -2.21232       -0.03129
C          0.78572       -0.18802        1.00921
C         -0.77278       -0.18452        1.01861
C          0.78562       -0.09582       -1.10199
C         -0.80548       -0.07462       -1.07569
C          1.19602        0.93328        0.02581
C         -1.18988        0.93868        0.04021
C          1.17772       -1.21902       -0.08189
C         -1.18258       -1.21362       -0.06759
C          0.01312        1.94018        0.09741
