24
C6H14N2O2
N          2.10718        1.75603        0.12744
C          2.07758        0.31623        0.41704
H          1.99948        0.16363        1.49344
C          0.87108       -0.31897       -0.27706
C         -0.41812        0.24183        0.32654
C         -1.62462       -0.39337       -0.36746
C         -2.91382        0.16743        0.23614
N         -4.07232       -0.44247       -0.43026
C          3.34378       -0.32437       -0.09056
O          4.00728        0.23303       -0.93256
O          3.73448       -1.51407        0.39284
H          2.17938        1.92393       -0.86496
H          1.29878        2.21943        0.51464
H          0.90288       -0.09047       -1.34236
H          0.89818       -1.39947       -0.13626
H         -0.44992        0.01333        1.39194
H         -0.44522        1.32233        0.18574
H         -1.59282       -0.16487       -1.43276
H         -1.59752       -1.47387       -0.22666
H         -2.94562       -0.06107        1.30144
H         -2.94092        1.24793        0.09534
H         -4.03592       -1.44897       -0.36936
H         -4.93662       -0.08807       -0.04896
H          4.55338       -1.88517        0.03674
