18
C8H10
C          1.19709       -0.12532       -0.00291
C         -0.00001       -0.81652       -0.00191
C         -1.19711       -0.12532       -0.00041
C         -1.19711        1.25698        0.00059
C         -0.00001        1.94818        0.00049
C          1.19709        1.25698       -0.00241
C         -2.50221       -0.87882       -0.00031
C          2.50219       -0.87882        0.00179
H         -0.00001       -1.89652       -0.00261
H         -2.13241        1.79698        0.00099
H         -0.00001        3.02818        0.00089
H          2.13249        1.79698       -0.00211
H         -2.81621       -1.06152        1.02739
H         -3.26221       -0.28922       -0.51301
H         -2.37231       -1.83072       -0.51521
H          2.81829       -1.06442       -1.02471
H          3.26119       -0.28782        0.51439
H          2.37119       -1.82932        0.51909
