14
CH6Cu2O5
Cu         1.73209       -0.41857        0.00000
Cu        -1.73201       -0.41857        0.00000
H          3.13499       -0.22857        0.00000
H          2.59809        0.70143        0.00000
H         -3.13501       -0.22857        0.00000
H         -2.59811        0.70143        0.00000
O         -0.00001       -1.41857        0.00000
C         -0.00001       -0.41857        0.00000
H          0.86599        0.70143        0.00000
H         -0.86601        0.70143        0.00000
O          0.86599        0.08143        0.00000
O         -0.86601        0.08143        0.00000
O          2.59809        0.08143        0.00000
O         -2.59811        0.08143        0.00000
