12
C4H4O4
C         -1.44216        0.24972       -0.11754
C         -0.66526       -0.98378        0.11176
C          0.66234       -0.98867       -0.09104
C          1.44614        0.24292        0.12436
O          0.92254        1.21552        0.62916
O          2.74294        0.28842       -0.23894
O         -0.90196        1.22812       -0.59264
O         -2.75236        0.28872        0.19506
H         -1.16436       -1.88257        0.44266
H          1.15624       -1.89388       -0.41184
H          3.21524        1.11682       -0.07794
H         -3.21936        1.11862        0.02696
