33
C13H16N2O2
C          1.53750        0.59469        0.36721
C          3.38100       -1.20501       -0.70299
C          0.19650       -2.76931        0.02151
C          3.72610        0.11319       -0.50539
C         -1.33860       -0.98081        0.98281
C         -2.18200       -0.36891       -0.13749
C          4.49520        2.68049       -0.15469
C         -5.63280        1.25659        0.18581
H          1.88410       -3.68701       -0.78289
H         -3.61480        0.06039        1.36961
C         -0.04830       -1.50771        0.40971
C          2.80830        1.01429        0.02861
O         -4.11950        0.83339       -1.57499
C         -4.34250        0.72969       -0.38739
O          3.16530        2.31289        0.21681
N         -3.43640        0.14329        0.41971
C          1.17650       -0.74031        0.17111
C          2.10550       -1.64761       -0.36829
N          1.47790       -2.87311       -0.44629
H          0.82810        1.29349        0.78541
H          4.10070       -1.89531       -1.11779
H         -0.51300       -3.58201        0.07141
H         -1.11950       -0.21851        1.73051
H         -1.89000       -1.79801        1.44791
H          4.71790        0.45139       -0.76669
H         -1.63060        0.44819       -0.60249
H         -2.40110       -1.13121       -0.88509
H          4.64210        2.48749       -1.21739
H          4.64880        3.74069        0.04661
H          5.20930        2.09379        0.42321
H         -5.65410        1.07469        1.26031
H         -5.70360        2.32779       -0.00289
H         -6.47410        0.74829       -0.28549
