7
CH5N
C          0.58304       -0.00000       -0.09556
N         -0.88386       -0.00000       -0.17366
H          0.97484        0.87170       -0.61976
H          0.89134        0.03550        0.94934
H          0.97154       -0.90720       -0.55846
H         -1.26846       -0.83150        0.24904
H         -1.26846        0.83150        0.24904
