8
C4H3N
C          1.52626        0.00000       -0.00001
C          0.05426        0.00000       -0.00001
C         -1.11974        0.00000       -0.00001
C         -2.49674       -0.00000       -0.00001
N         -3.63274       -0.00000       -0.00001
H          1.88956       -0.00000        1.02769
H          1.88956       -0.89000       -0.51381
H          1.88956        0.89000       -0.51381
