19
C8H8O3
O          4.06025       -0.14693       -0.06294
C          2.70915       -0.02023       -0.05724
C          2.13155        1.24427       -0.05364
C          0.76125        1.37717       -0.04744
C         -0.04955        0.23837       -0.04524
C         -1.51775        0.37607       -0.03914
O         -2.02435        1.48047       -0.03594
O         -2.29745       -0.72293       -0.03704
C         -3.73405       -0.51193       -0.03094
C          0.53545       -1.03123       -0.04944
C          1.90655       -1.15533       -0.06084
H          4.45545       -0.18453        0.81886
H          2.75865        2.12347       -0.05524
H          0.31335        2.35997       -0.04384
H         -4.24285       -1.47583       -0.02984
H         -4.01515        0.04837        0.86076
H         -4.02245        0.05017       -0.91914
H         -0.08735       -1.91363       -0.04774
H          2.35935       -2.13583       -0.06404
