20
C5H11NO2S
N          1.46054        1.59149       -0.07140
C          1.44814        0.16689        0.28670
H          1.36194        0.06490        1.36850
C          0.25724       -0.51801       -0.38670
C         -1.04536        0.05259        0.17790
S         -2.45736       -0.75940       -0.62050
C         -3.88456        0.03679        0.16680
C          2.72784       -0.47911       -0.17830
O          3.39154        0.04680       -1.04019
O          3.13034       -1.63861        0.36491
H          2.19974        2.07939        0.41190
H          1.53984        1.71270       -1.06990
H          0.29594       -0.34031       -1.46139
H          0.29794       -1.59001       -0.19400
H         -1.08406       -0.12511        1.25260
H         -1.08606        1.12470       -0.01480
H         -3.85226       -0.14051        1.24180
H         -3.85426        1.10929       -0.02560
H         -4.80476       -0.37990       -0.24270
H          3.95764       -2.01460        0.03430
