12
C4H6O2
C         -0.06987        0.05442       -0.00203
C         -1.37337       -0.62418       -0.00133
C         -2.49577        0.09082        0.00117
O         -0.01687        1.26852       -0.00033
O          1.06703       -0.66988        0.00107
C          2.31813        0.06712        0.00017
H         -1.42037       -1.70318       -0.00283
H         -2.44867        1.16972        0.00267
H         -3.45367       -0.40788        0.00177
H          2.37113        0.69172       -0.89153
H          2.36953        0.69672        0.88837
H          3.15273       -0.63388        0.00287
