18
C8H8O2
C          1.24328        0.41029       -0.00189
C         -0.22152        0.21869       -0.00059
C         -1.07352        1.32489        0.00041
C         -2.44032        1.13869        0.00111
C         -2.96752       -0.14061        0.00141
C         -2.12892       -1.24131        0.00091
C         -0.76022       -1.06951       -0.00609
O          1.70898        1.53219       -0.00209
O          2.06248       -0.65901        0.00291
C          3.49038       -0.39561        0.00121
H         -0.66342        2.32399        0.00091
H         -3.10052        1.99339        0.00181
H         -4.03842       -0.28071        0.00231
H         -2.54702       -2.23711        0.00191
H         -0.10682       -1.92941       -0.00679
H          3.75418        0.17149       -0.89139
H          3.75468        0.17979        0.88851
H          4.03418       -1.34021        0.00551
