6
CH4S
C          0.48062        0.20215       -0.00000
S         -1.33238        0.26395       -0.00000
H          0.82622       -0.32375        0.89000
H          0.82622       -0.32375       -0.89000
H          0.87872        1.21685       -0.00000
H         -1.67938       -1.03545        0.00000
