19
C8H6Cl2O3
C          0.87387        0.85311       -0.00063
C          2.62757       -1.29039        0.00007
C          2.23787        1.07531       -0.00043
C         -1.80473        0.48711       -0.00043
C          0.38337       -0.44379       -0.00043
C          1.26417       -1.51709       -0.00003
C          3.11427        0.00501       -0.00013
O         -3.52163       -1.12649        0.00057
O         -4.22633        0.96801       -0.00033
C         -3.24693        0.05011       -0.00003
O         -0.95813       -0.66409       -0.00003
H         -5.13583        0.63951       -0.00003
Cl         0.65357       -3.14219       -0.00033
Cl         4.82717        0.28741        0.00007
H          0.19027        1.68921        0.00367
H          3.31347       -2.12469        0.00077
H          2.61987        2.08551       -0.00093
H         -1.60613        1.08381       -0.89073
H         -1.60583        1.08461        0.88927
