29
C10H13Cl2NO3
C         -4.22113       -2.78024        0.16651
C         -3.29463       -0.86114       -0.93239
C         -4.45293       -0.15264       -0.67759
C         -6.69163        1.28916       -0.20929
H         12.27607        0.48046        0.53381
H         11.48347       -0.23054       -0.89259
H         11.95657       -1.26954        0.47301
H          9.61837        1.31716       -0.62769
H         10.41087        2.02816        0.79871
H          8.75557        1.38666        0.92761
C         -5.49993       -0.75754        0.00191
C         -5.38183       -2.07464        0.42391
C         -3.17833       -2.17414       -0.51109
O         -8.84033        1.23936        0.75631
O         -8.29493        3.16636       -0.17789
C         -8.02103        1.89616        0.15851
O         -6.64003       -0.06154        0.25421
H         -9.16073        3.51176        0.07961
Cl        -6.69063       -2.83534        1.27371
Cl        -1.72153       -3.06174       -0.83279
C         11.58057       -0.28584        0.19171
C          9.72827        1.25116        0.45471
H          9.62227       -0.80204        0.56201
N         10.26727       -0.06774        0.81261
H         -6.57153        1.30646       -1.29249
H         -5.88933        1.86326        0.25431
H         -4.12663       -3.80354        0.49851
H         -2.47933       -0.39004       -1.46119
H         -4.54293        0.87206       -1.00669
