40
C17H19NO3
C         -0.94412       -2.17568        1.28935
C         -2.22142       -2.33237        0.77545
C         -2.76992       -1.49057       -0.19075
O         -4.03512       -1.67138       -0.65565
C         -1.96062       -0.45188       -0.65985
C         -0.66992       -0.36238       -0.15305
C         -0.00952        0.80363       -0.84575
C         -1.23702        1.64572       -1.17875
H         -1.07062        2.36042       -1.98475
O         -2.19022        0.57122       -1.51545
C         -1.81862        2.28043        0.08985
H         -2.32542        3.20443       -0.18865
O         -2.78712        1.38482        0.63945
C         -0.82102        2.59242        1.14505
C          0.41138        2.19583        1.18265
C          1.00618        1.38932        0.10645
H          1.61448        2.06012       -0.50015
C          1.92018        0.27082        0.58865
H          2.68378        0.71162        1.22945
C          1.22828       -0.83317        1.37095
C         -0.13252       -1.15148        0.83435
N          2.59328       -0.30838       -0.58665
C          3.58008       -1.31907       -0.18325
C          1.65408       -0.85447       -1.56975
C          0.71588        0.28373       -2.08915
H         -0.58292       -2.85188        2.05005
H         -2.82372       -3.15017        1.14265
H         -4.71042       -1.19477       -0.15365
H         -3.20752        1.70802        1.44805
H         -1.15692        3.21243        1.96305
H          1.01708        2.45293        2.03905
H          1.82618       -1.74158        1.29715
H          1.17368       -0.53778        2.41875
H          3.06488       -2.17988        0.24305
H          4.15428       -1.63417       -1.05455
H          4.25308       -0.89318        0.56085
H          2.21228       -1.24228       -2.42185
H          1.08888       -1.66678       -1.11275
H         -0.02782       -0.13028       -2.77005
H          1.30468        1.04563       -2.59995
