36
C12H15N3O6
C         -2.50004       -1.25054        0.74788
C         -2.51354       -0.01884       -1.42592
C         -2.50724        1.24786        0.72768
C          2.34406       -2.49554       -0.02602
C          2.32986        2.50896       -0.00782
C         -0.48994       -0.00144        0.00728
C          0.20456       -1.19654       -0.00332
C          0.19776        1.19766        0.00588
C          1.58686       -1.19264       -0.01542
C          1.58006        1.20166       -0.00622
C          2.27456        0.00656       -0.01742
O         -1.09144       -2.86334       -1.01312
O         -0.77624        3.03896        1.07278
O          4.35446        0.01606       -1.09042
O         -0.57824       -3.15434        1.01228
O         -0.92754        2.96906       -1.03022
O          4.37296        0.00886        1.01908
C         -1.99694       -0.00574        0.01418
N         -0.53184       -2.48054       -0.00132
N         -0.54594        2.47746        0.01678
N          3.75476        0.01076       -0.03032
H         -1.82434       -1.48544        1.57028
H         -3.49894       -1.06164        1.14108
H         -2.53524       -2.09124        0.05498
H         -2.25474       -0.96764       -1.89602
H         -3.59674        0.10236       -1.42442
H         -2.05714        0.79926       -1.98312
H         -2.35814        2.11676        0.08668
H         -3.56934        1.13506        0.94548
H         -1.95784        1.38486        1.65908
H          2.51756       -2.80654       -1.05622
H          3.30056       -2.36404        0.47988
H          1.76166       -3.25844        0.49058
H          2.51956        2.82016        1.01938
H          3.27806        2.38326       -0.53042
H          1.73416        3.26886       -0.51352
