54
C20H30O4
C         -0.39787       -0.92889        0.00000
C         -2.26397       -1.42889        0.00000
C          0.10213       -0.06289        0.00000
C          2.60213        0.80311        0.00000
C          3.10213        1.66911        0.00000
C          5.60213        2.53521        0.00000
C          6.10213        3.40121        0.00000
H         -0.08787        1.34011        0.00000
H          3.72213       -0.06289        0.00000
O         -3.29837        0.99561        0.00000
C         -0.39787       -1.92889        0.00000
C         -2.60597       -2.36859        0.00000
C         -4.45677       -0.16289        0.00000
C         -5.09957       -0.92889        0.00000
C         -5.09957       -1.92889        0.00000
O         -0.39787        0.80311        0.00000
O          3.10213       -0.06289        0.00000
C         -1.26397       -1.42889        0.00000
C         -3.47197        0.01081        0.00000
C          1.10213       -0.06289        0.00000
C          1.60213        0.80311        0.00000
C          4.10213        1.66911        0.00000
C          4.60213        2.53521        0.00000
O         -2.60597       -0.48919        0.00000
C         -3.47197       -2.86859        0.00000
C         -4.45677       -2.69499        0.00000
H          0.42313       -1.14889        0.00000
H         -1.77637       -0.73259        0.00000
H         -1.42437       -0.83009        0.00000
H         -0.60997       -2.51149        0.00000
H          0.21263       -2.03659        0.00000
H          0.41213        0.47401        0.00000
H         -2.46297       -2.97189        0.00000
H         -1.98697       -2.40469        0.00000
H          1.41213       -0.59979        0.00000
H         -3.36427       -3.47919        0.00000
H          1.29213        1.34011        0.00000
H         -4.38477        0.45291        0.00000
H         -5.02607        0.08271        0.00000
H         -4.76677       -3.23189        0.00000
H          3.22213        0.80311        0.00000
H         -5.44027       -0.41089        0.00000
H         -5.69357       -1.10669        0.00000
H         -5.69357       -1.75109        0.00000
H         -5.44027       -2.44689        0.00000
H          3.20973        2.27971        0.00000
H          2.51953        1.88121        0.00000
H          4.41213        1.13221        0.00000
H          4.29213        3.07211        0.00000
H          5.49443        1.92461        0.00000
H          6.18473        2.32311        0.00000
H          6.63903        3.09121        0.00000
H          6.41213        3.93811        0.00000
H          5.56513        3.71121        0.00000
