54
C18H34O2
C          9.22854       -1.42062       -0.21451
C          7.79794       -1.57692        0.23269
C          7.01934       -0.30082       -0.09331
C          5.56694       -0.45962        0.36069
C          4.78824        0.81648        0.03469
C          3.33584        0.65778        0.48869
C          2.55724        1.93388        0.16269
C          1.10484        1.77518        0.61669
C          0.33794        3.03208        0.29559
C         -0.78286        2.96118       -0.37881
C         -1.39366        1.61828       -0.68641
C         -2.84546        1.59578       -0.20411
C         -3.46556        0.23238       -0.51631
C         -4.91736        0.20988       -0.03411
C         -5.53746       -1.15352       -0.34631
C         -6.98926       -1.17602        0.13589
C         -7.60936       -2.53942       -0.17631
C         -9.06116       -2.56192        0.30599
O          9.58844       -0.39392       -0.74011
O         10.10424       -2.41982       -0.02401
H          7.34514       -2.42152       -0.28661
H          7.77064       -1.75452        1.30779
H          7.47214        0.54378        0.42599
H          7.04654       -0.12332       -1.16841
H          5.11404       -1.30422       -0.15861
H          5.53964       -0.63712        1.43579
H          5.24104        1.66108        0.55399
H          4.81554        0.99408       -1.04041
H          2.88304       -0.18682       -0.03061
H          3.30864        0.48028        1.56379
H          3.01004        2.77848        0.68199
H          2.58444        2.11138       -0.91241
H          0.65204        0.93058        0.09739
H          1.07754        1.59758        1.69179
H          0.71234        3.99118        0.62139
H         -1.26926        3.86518       -0.71451
H         -1.36536        1.44388       -1.76201
H         -0.82936        0.83718       -0.17671
H         -2.87386        1.77008        0.87149
H         -3.40976        2.37678       -0.71381
H         -3.43716        0.05798       -1.59191
H         -2.90126       -0.54872       -0.00671
H         -4.94576        0.38418        1.04149
H         -5.48166        0.99088       -0.54371
H         -5.50906       -1.32792       -1.42191
H         -4.97316       -1.93462        0.16329
H         -7.01766       -1.00172        1.21149
H         -7.55356       -0.39502       -0.37371
H         -7.58096       -2.71382       -1.25191
H         -7.04506       -3.32052        0.33339
H         -9.08946       -2.38762        1.38159
H         -9.62546       -1.78092       -0.20371
H         -9.50296       -3.53332        0.08349
H         11.01054       -2.27322       -0.32751
