6
C2O4
C         -0.43305       -0.25000        0.00000
C          0.43305        0.25000        0.00000
O          0.43305        1.25000        0.00000
O          1.29905       -0.25000        0.00000
O         -0.43305       -1.25000        0.00000
O         -1.29905        0.25000        0.00000
