15
C7H6O2
O          2.96904       -0.36597       -0.07699
C          1.62314       -0.19647       -0.06849
C          1.08614        1.08643       -0.06309
C         -0.27356        1.26313       -0.05409
C         -1.12196        0.14903       -0.05079
C         -2.57896        0.33243       -0.04159
O         -3.31186       -0.63407       -0.03889
C         -0.57616       -1.14067       -0.05679
C          0.78494       -1.30637       -0.07109
H          3.36464       -0.41657        0.80391
H          1.74134        1.94503       -0.06559
H         -0.68946        2.25983       -0.04909
H         -2.99796        1.32783       -0.03739
H         -1.22616       -2.00317       -0.05429
H          1.20684       -2.30047       -0.07569
