46
C19H21ClFNO3
C          1.74785       -1.82037        0.41177
C          0.26335       -1.64687        0.07927
H         14.75605        3.96963        1.35037
H          1.92475       -1.53427        1.44867
H          0.09385       -1.89407       -0.96873
H         -3.93675        0.70053       -0.74273
H         -1.19365        4.30313        1.21627
H         -0.24325        2.05203        0.92597
H         -0.06715        0.02273        1.39987
H          0.50055        0.47243       -0.22613
H          1.99995       -3.56037       -0.83553
H          3.18535       -3.42507        0.48637
H         -5.79635        5.22163       -0.23933
H         -5.66445        4.29293        1.28827
H         -0.40595       -2.32217        2.01257
H         -1.62185       -2.46887        0.72127
H          3.43655        0.16973        1.10547
H          1.87835       -1.89657       -2.28453
H          1.52395       -5.21767        0.94077
H          1.40785       -3.90697        2.13917
H          4.78205        1.59823       -0.38123
H          3.22575       -0.47287       -3.77413
C         -3.33875        1.48943       -0.31083
C         -1.79515        3.51503        0.78807
C         -1.26145        2.25053        0.62537
C          3.38825        0.03203        0.03537
C          2.51515       -1.13007       -1.86823
C          4.14565        0.83213       -0.79893
C          3.27125       -0.33077       -2.70453
C         -0.15145       -0.19667        0.33547
C         -2.03145        1.23633        0.07547
C          2.57325       -0.94847       -0.49903
C          4.08795        0.65153       -2.17043
H         -0.74865       -4.61157        1.23687
C          2.14005       -3.28667        0.21017
C         -5.21695        4.48133        0.31237
C         -0.56535       -2.57957        0.96547
C          1.25695       -4.17187        1.09267
O         -1.50415       -0.00687       -0.08423
Cl       -17.29755       -2.02667       -1.33493
C         -3.87605        2.75593       -0.14823
C         -3.10075        3.77283        0.40347
O         -5.11115        3.25843       -0.44023
O         -3.85105        4.91313        0.45687
F          4.82755        1.43343       -2.98703
N         -0.15295       -3.96997        0.73517
