42
C16H18N2NaO4S
Na        15.52467        4.50515        0.24473
C          4.42237       -0.63165       -0.05917
C          3.74657       -2.92005        0.13943
C          5.67177       -1.03795       -0.48907
C          4.99597       -3.32635       -0.29047
C          5.95847       -2.38535       -0.60497
C          2.09767       -1.12975        0.72363
C         -3.71503        1.10935        2.35023
C         -5.25393        0.45095        0.46083
H         -0.42263       -0.39525        0.60763
C          3.45967       -1.57265        0.25493
O         -4.49033        2.79315       -1.47597
O         -0.77693        1.95465       -2.17867
O          1.60267       -1.18325       -1.58327
O         -4.10533        3.76075        0.47313
C         -3.93183        2.76055       -0.40497
C          1.18677       -0.96355       -0.46537
C         -3.04043        1.59685       -0.05517
C         -0.97553       -0.40945       -1.44237
C         -1.38603        1.01245       -1.71797
H         -4.68633        4.48545        0.20393
N         -0.09003       -0.57095       -0.28647
C         -2.45913       -0.55745       -1.12507
C         -3.79933        0.63485        0.89813
S         -2.82033       -0.90435        0.63823
N         -2.66033        0.88945       -1.28127
H         -2.14363        1.96525        0.44283
H         -3.02203       -1.17885       -1.82157
H         -4.15823        2.10165        2.43453
H         -4.25643        0.41405        2.99173
H         -2.67053        1.15055        2.65903
H         -5.28073        0.03365       -0.54577
H         -5.75713       -0.22815        1.14913
H         -5.76023        1.41615        0.46763
H         -0.64563       -0.96175       -2.32227
H          1.68327       -1.88025        1.39673
H          2.18577       -0.17905        1.24943
H          4.19987        0.42085        0.03573
H          2.99437       -3.65515        0.38483
H          6.42377       -0.30275       -0.73477
H          5.22017       -4.37895       -0.38027
H          6.93437       -2.70275       -0.94157
