36
C22H14
C         -4.86531       -1.41230        0.00001
C         -6.01871       -0.69840       -0.00009
C         -6.01881        0.69820       -0.00019
C         -4.86541        1.41230       -0.00029
C         -3.62531        0.73450       -0.00019
C         -2.42581        1.43520        0.00021
C         -1.21011        0.73550        0.00071
C          0.00009        1.43460        0.00071
C          1.21009        0.73520        0.00081
C          2.42579        1.43490        0.00021
C          3.62519        0.73430       -0.00019
C          4.86519        1.41230       -0.00029
C          6.01869        0.69850       -0.00019
C          6.01879       -0.69810        0.00001
C          4.86549       -1.41220        0.00011
C          3.62529       -0.73450        0.00001
C          2.42589       -1.43520       -0.00039
C          1.21009       -0.73550        0.00091
C         -0.00001       -1.43470        0.00001
C         -1.21011       -0.73530        0.00081
C         -2.42581       -1.43500       -0.00009
C         -3.62521       -0.73430       -0.00009
H         -4.89431       -2.49190        0.00471
H         -6.96211       -1.22400       -0.00039
H         -6.96231        1.22370       -0.00069
H         -4.89471        2.49190       -0.00079
H         -2.42931        2.51520       -0.00019
H          0.00009        2.51460        0.00031
H          2.42929        2.51490       -0.00019
H          4.89429        2.49190       -0.00079
H          6.96209        1.22410       -0.00059
H          6.96229       -1.22360       -0.00019
H          4.89479       -2.49180       -0.00009
H          2.42939       -2.51520       -0.00019
H         -0.00011       -2.51470       -0.00169
H         -2.42941       -2.51500       -0.00179
