43
C17H25N
C          2.56050       -1.32129       -0.13102
C          1.88420        0.94891        0.21758
C          3.88620       -0.93089       -0.10142
C          3.21000        1.33931        0.24708
C          4.21100        0.39941        0.08778
C          1.55950       -0.38139        0.02878
C         -0.12800       -1.69839       -1.22312
C         -0.21660       -1.58599        1.27128
C         -0.33590        1.24861       -1.20012
C         -0.75140        1.11711        1.18358
C         -1.59530       -2.13049       -1.25572
C         -1.68390       -2.01809        1.23858
C         -1.33650        2.39711       -1.34802
C         -1.76440        2.26171        1.10698
C         -1.92610       -2.90949        0.01888
C         -1.38360        3.19761       -0.04352
N         -0.74460        0.38181       -0.08752
C          0.11420       -0.80699       -0.00342
H          0.50930       -2.58059       -1.16072
H          0.10770       -1.14349       -2.13122
H         -0.04410       -0.95089        2.14018
H          0.42070       -2.46809        1.33368
H          2.30670       -2.35989       -0.28332
H          1.10210        1.68321        0.34238
H         -0.31050        0.66811       -2.12242
H          0.65560        1.65431       -0.99922
H          0.24210        1.52341        1.37338
H         -1.02780        0.44111        1.99278
H         -2.23250       -1.24839       -1.31812
H         -1.76780       -2.76559       -2.12472
H         -1.91950       -2.57299        2.14668
H         -2.32110       -1.13599        1.17618
H          4.66830       -1.66529       -0.22592
H          3.46370        2.37871        0.39418
H         -1.02430        3.04901       -2.16392
H         -2.32560        1.99261       -1.56272
H         -2.76030        1.85511        0.93088
H         -1.75790        2.81681        2.04498
H         -2.97140       -3.21729       -0.00432
H         -1.28880       -3.79159        0.08128
H          5.24680        0.70431        0.11158
H         -0.40420        3.63451        0.15128
H         -2.12660        3.99041       -0.12932
