41
C16H17N2O5S
C         -1.25883       -1.76966        0.88371
C         -2.47583       -1.05106        1.47331
C         -3.51843       -0.14776       -0.58689
C          4.53987        0.89174       -0.42669
C          5.69277        1.59134       -0.72659
C          6.91557        0.94584       -0.72159
C          6.98777       -0.40076       -0.41649
C          5.83787       -1.10486       -0.11589
C          2.24827       -0.42086        0.15171
C         -3.47233        2.39064       -0.42439
C         -5.04643        1.06984        1.04241
H         -0.32763        0.06114        0.34581
C          4.60977       -0.45956       -0.12029
O         -2.01873       -2.80086       -1.27959
O         -5.20593        0.39844       -2.15179
O          1.32917       -2.51106        0.74861
C         -4.81133       -0.39986       -1.31899
C          1.10977       -1.34386        0.50251
O          3.47707       -1.14986        0.17551
C         -2.15173       -2.11036       -0.29139
N         -0.15213       -0.87236        0.54271
O         -5.46263       -1.40206       -1.07849
C         -3.68663        1.08344        0.34131
S         -2.31573        0.77234        1.53231
N         -3.16653       -1.33506        0.19761
H         -0.93973       -2.63766        1.46061
H         -2.89773       -1.49996        2.37251
H         -4.20153        2.46274       -1.23139
H         -3.59723        3.23414        0.25461
H         -2.46553        2.40624       -0.84199
H          3.58557        1.39734       -0.42639
H          5.63887        2.64314       -0.96549
H          7.81567        1.49444       -0.95659
H          7.94407       -0.90276       -0.41359
H          5.89487       -2.15666        0.12231
H         -5.13513        0.16644        1.64571
H         -5.13253        1.94594        1.68521
H         -5.84033        1.08764        0.29581
H         -2.72893        0.05234       -1.31129
H          2.08887       -0.00986       -0.84519
H          2.29377        0.39174        0.87671
