24
C14H10
C         -2.81339        0.90668        0.00025
C         -3.50029       -0.27202       -0.00045
C         -2.82929       -1.48892       -0.00015
C         -1.46399       -1.53372        0.00035
C         -0.73289       -0.34452        0.00055
C          0.73291       -0.34452        0.00055
C          1.46401       -1.53362        0.00045
C          2.82921       -1.48892       -0.00005
C          3.50031       -0.27202       -0.00035
C          2.81351        0.90668       -0.00015
C          1.41161        0.89508        0.00035
C          0.67411        2.10208        0.00005
C         -0.67409        2.10198        0.00045
C         -1.41159        0.89508        0.00075
H         -3.34769        1.84528       -0.00415
H         -4.58029       -0.25922       -0.00075
H         -3.39359       -2.40982        0.00005
H         -0.95249       -2.48482        0.00095
H          0.95251       -2.48482        0.00095
H          3.39351       -2.40982        0.00015
H          4.58021       -0.25922       -0.00035
H          3.34771        1.84518       -0.00005
H          1.20241        3.04398       -0.00015
H         -1.20239        3.04398        0.00065
