21
C6H10O5
O        -18.22592       -0.01600       -0.37455
O         -8.27822       -0.26050        0.24115
C          4.25058        0.83670        0.52045
O          3.32998        1.70470        1.01615
C          5.40898        1.31760       -0.07115
C          6.34838        0.43180       -0.57715
O          7.48328        0.90300       -1.15725
C          6.12978       -0.93490       -0.49075
C          4.97168       -1.41580        0.10135
O          4.75728       -2.75510        0.18555
C          4.03428       -0.53010        0.61125
H        -18.45772        0.91510       -0.25395
H        -17.37032       -0.15600       -0.80295
H         -8.51012        0.67050        0.36175
H         -7.42272       -0.40050       -0.18725
H          2.65648        1.97200        0.37585
H          5.57928        2.38190       -0.13825
H          8.21898        1.02360       -0.54145
H          6.86138       -1.62480       -0.88475
H          5.10248       -3.15860        0.99375
H          3.13228       -0.90460        1.07225
