8
H3O4P
P          0.00000        0.17977        0.22582
O         -0.00000       -1.42732        0.12903
O          1.31460        0.76108       -0.49948
O         -1.31460        0.76108       -0.49948
O          0.00000        0.58827        1.64833
H         -0.00000       -1.76682       -0.77648
H          2.14570        0.45197       -0.11387
H         -2.14570        0.45197       -0.11387
