36
C22H14
C         -3.60178       -1.62584        0.00092
C         -4.96608       -1.58014        0.00172
C         -5.63768       -0.36244        0.00152
C         -4.95218        0.81596        0.00052
C         -3.54898        0.80496        0.00012
C         -2.81218        2.00926       -0.00058
C         -1.46008        2.00356       -0.00048
C         -0.73098        0.80036       -0.00028
C          0.73112        0.80056       -0.00028
C          1.46022        2.00376       -0.00038
C          2.81232        2.00936        0.00012
C          3.54912        0.80506        0.00082
C          4.95222        0.81586        0.00092
C          5.63752       -0.36274        0.00122
C          4.96572       -1.58044        0.00092
C          3.60142       -1.62574        0.00032
C          2.87012       -0.43524        0.00102
C          1.40552       -0.43724        0.00042
C          0.67882       -1.63674       -0.00228
C         -0.67848       -1.63694       -0.00378
C         -1.40528       -0.43744        0.00032
C         -2.86998       -0.43554        0.00032
H         -3.09058       -2.57714        0.00522
H         -5.53068       -2.50084        0.00222
H         -6.71758       -0.35004        0.00192
H         -5.48698        1.75426       -0.00038
H         -3.33818        2.95246       -0.00148
H         -0.92798        2.94336       -0.00098
H          0.92812        2.94356       -0.00128
H          3.33842        2.95256       -0.00038
H          5.48722        1.75406        0.00042
H          6.71742       -0.35054        0.00122
H          5.53012       -2.50124        0.00072
H          3.08992       -2.57694       -0.00058
H          1.20892       -2.57764       -0.00358
H         -1.20858       -2.57794       -0.00628
