42
C18H20N2O2
C         -0.66399        1.96461        0.34376
C         -2.94279        0.25881        0.01066
H          5.16811       -1.60089       -0.97244
H         -0.11039        0.56381        1.74226
H         -2.67459        0.66971       -1.98194
O          4.92441       -1.31459       -0.08154
C         -1.48739        1.98551       -0.94714
C          3.13701        1.85351       -0.06024
C          4.17451        0.94431       -0.10504
C         -1.09069       -2.04769       -1.30464
C          0.26971       -2.28749       -1.24174
C          1.81551        1.41641        0.04706
C          2.59961       -0.85069        0.03936
C         -1.81039       -1.82539       -0.13874
C          0.91221       -2.28089       -0.00494
C          0.74261        2.45731        0.09996
C         -2.11869        0.36051        1.29896
C         -3.21049       -1.26439       -0.19024
C          3.90521       -0.41489       -0.04924
C          1.55281        0.06401        0.09166
C         -1.21709       -2.11229        1.08516
C          0.14171       -2.35229        1.15396
O          2.27021       -2.19229        0.07306
N         -2.13519        0.68801       -1.12934
N         -0.71099        0.62421        0.93376
H         -1.15809        2.64781        1.06326
H         -3.87559        0.78631        0.07816
H          0.75131        2.99941       -0.84564
H          0.99521        3.16241        0.89186
H         -2.24649        2.76501       -0.88164
H         -0.83119        2.18651       -1.79384
H         -2.49739        1.17781        1.91256
H         -2.18449       -0.57709        1.85096
H         -3.82179       -1.66399        0.61896
H         -3.67309       -1.45569       -1.15844
H          0.53381       -0.28559        0.16756
H          3.34911        2.91131       -0.10824
H          5.19441        1.29091       -0.18424
H         -1.81799       -2.14709        1.98196
H         -1.59299       -2.03309       -2.26064
H          0.60381       -2.59319        2.09986
H          0.83041       -2.47879       -2.14474
