13
C6H5KO
C         -1.81337        0.92668        0.23566
C         -2.06137       -0.39062        0.59326
C         -1.11577       -1.36442        0.33676
C          0.07703       -1.02722       -0.27594
C          0.32673        0.28498       -0.63304
C         -0.61587        1.26248       -0.37904
O         -2.74437        1.88558        0.48186
K         10.59393        0.42368        0.19786
H         -2.99267       -0.65442        1.07226
H         -1.30817       -2.39002        0.61536
H          0.81503       -1.79002       -0.47574
H          1.25923        0.54598       -1.11114
H         -0.42037        2.28728       -0.65814
