17
C5H9NO2
N          0.25951        1.27618       -0.18941
C         -0.55659        0.05958       -0.43641
H         -0.56539       -0.18292       -1.49911
C         -1.96269        0.25858        0.06779
O         -2.19989        1.13358        0.86659
O         -2.95159       -0.53622       -0.37041
C          0.15271       -1.05372        0.36409
C          1.61211       -0.57542        0.50909
C          1.66181        0.78658       -0.21591
H          0.10431        1.96768       -0.90771
H         -3.83689       -0.37032       -0.01851
H         -0.30799       -1.16662        1.34539
H          0.11561       -1.99572       -0.18311
H          1.86771       -0.45362        1.56169
H          2.29141       -1.28272        0.03319
H          2.00021        0.65788       -1.24401
H          2.31571        1.47718        0.31679
