42
C17H19ClF3NO
H         15.07950        2.12416        1.10769
H          0.94150        0.04126        0.87249
H         -2.30970        2.15656        2.28029
H         -3.09050        3.21146       -1.77791
H         -0.64360        0.50516        1.53499
H         -1.42900        1.55916       -2.53161
H          1.87160       -1.75914       -1.40851
H          2.60580       -1.72144        0.21259
H          0.52050       -1.50044        2.60859
H         -0.76070       -2.39314       -1.36011
H         -0.75440       -3.42984        3.45419
H         -2.04020       -4.31924       -0.51381
H          2.37940        0.65106       -1.69451
H          3.11370        0.68876       -0.07351
H         -2.03580       -4.83854        1.89309
H          4.50900        1.32066       -2.67471
H          5.96740        0.35806       -2.33561
H          5.24330        1.35836       -1.05361
C         -2.11260        2.02656        1.22649
C         -2.55300        2.61746       -1.05361
C         -1.17940        1.09776        0.80829
C         -1.62050        1.69036       -1.47681
C         -0.03800       -2.12084        1.92339
C         -0.75950       -2.62034       -0.30431
C         -0.75600       -3.20244        2.39839
C         -1.47740       -3.70194        0.17079
C         -1.47550       -3.99314        1.52209
C          2.06860       -1.13764       -0.53491
C          2.91660        0.06726       -0.94701
C          5.03160        0.73226       -1.92041
C         -2.79870        2.78586        0.29659
C         -0.93080        0.92726       -0.54581
C         -0.03960       -1.82994        0.57199
H          4.67670       -0.99724       -0.86151
O         -0.01290        0.01446       -0.95971
Cl       -16.83040       -1.45104       -0.84361
C          0.74310       -0.65084        0.05409
C         -3.81620        3.79836        0.75559
N          4.18930       -0.40004       -1.51261
F         -3.18870        5.03276        0.95459
F         -4.81200        3.93286       -0.21781
F         -4.39240        3.36916        1.95599
