26
C16H10
C         -2.79060        1.22207        0.00168
C         -3.45700       -0.00003        0.00108
C         -2.79060       -1.22213        0.00008
C         -1.39850       -1.27183       -0.00052
C         -0.69940       -2.47583       -0.00072
C          0.69960       -2.47583       -0.00072
C          1.39860       -1.27183       -0.00042
C          2.79070       -1.22203        0.00028
C          3.45690        0.00007        0.00098
C          2.79060        1.22217        0.00088
C          1.39840        1.27177        0.00028
C          0.69940        2.47577       -0.00092
C         -0.69950        2.47577       -0.00232
C         -1.39850        1.27177        0.00068
C         -0.65260       -0.00003       -0.00042
C          0.65260       -0.00003       -0.00032
H         -3.35850        2.14067       -0.00172
H         -4.53700       -0.00003        0.00198
H         -3.35850       -2.14083       -0.00002
H         -1.23830       -3.41183       -0.00062
H          1.23840       -3.41183       -0.00052
H          3.35860       -2.14063        0.00078
H          4.53690        0.00017        0.00188
H          3.35840        2.14087        0.00168
H          1.23830        3.41177       -0.00032
H         -1.23840        3.41177       -0.00282
