21
C3H6N6O6
O         -1.11639       -3.07422       -0.88732
O          2.20261        2.41778       -0.88742
O         -2.10429        2.50388       -0.88752
C          1.24851       -0.75442        0.54278
C         -1.27769       -0.70402        0.54278
C          0.02911        1.45848        0.54238
O          0.99281       -3.11612       -0.88762
O          3.22091        0.57018       -0.88682
O         -3.19559        0.69838       -0.88682
N         -0.02749       -1.37542        0.15238
N          1.20481        0.66378        0.15208
N         -1.17729        0.71138        0.15208
N         -0.05139       -2.57412       -0.57242
N          2.25521        1.24248       -0.57222
N         -2.20379        1.33158       -0.57232
H          1.38241       -0.83512        1.62158
H          2.07201       -1.25222        0.03078
H         -2.12039       -1.16842        0.03078
H         -1.41459       -0.77932        1.62158
H          0.03221        1.61508        1.62108
H          0.04831        2.42038        0.03018
