36
C5H16O13P2
P        -20.18180       -0.46793       -0.36101
O        -21.08120       -1.21443       -1.26871
O        -19.25270        0.52497       -1.22311
O        -21.06100        0.38897        0.68059
O        -19.25300       -1.50553        0.44709
P         -6.13260       -0.04783        0.39569
O         -7.03210       -0.79443       -0.51211
O         -5.20360        0.94497       -0.46641
O         -7.01190        0.80897        1.43719
O         -5.20390       -1.08543        1.20379
O         13.05550       -2.16113       -1.11851
C         12.44570       -1.04673       -0.46391
C         11.03830       -1.40763       -0.06401
O         10.60230       -2.50573       -0.31381
C         10.17490       -0.39803        0.64759
H         10.77710        0.14707        1.37439
O          9.11020       -1.07243        1.32119
C          9.59290        0.58377       -0.37131
H          8.99070        0.03867       -1.09821
O         10.65760        1.25807       -1.04491
C          8.71630        1.60867        0.35119
O          8.08050        2.45357       -0.61011
H        -18.63650        1.04747       -0.69171
H        -21.64570        1.03587        0.26269
H        -18.69460       -2.05643       -0.11841
H         -4.58740        1.46757        0.06489
H         -7.59660        1.45597        1.01929
H         -4.64550       -1.63633        0.63829
H         13.96510       -1.99993       -1.40431
H         13.02110       -0.78823        0.42509
H         12.42330       -0.19433       -1.14281
H          8.53210       -1.57923        0.73459
H         11.23560        1.76487       -0.45831
H          7.95770        1.08947        0.93669
H          9.33550        2.21377        1.01349
H          7.50760        3.12907       -0.22211
