17
C7H5NO3S
S         -2.05599        0.59196       -0.00022
O         -2.49409        1.09106       -1.25652
O         -2.49889        1.09176        1.25408
N         -2.30709       -1.06064       -0.00022
C         -1.08739       -1.61724       -0.00002
O         -0.95019       -2.82504       -0.00032
C          0.07831       -0.72314        0.00018
C          1.45021       -1.02634        0.00008
C          2.38531       -0.01624       -0.00012
C          1.99701        1.31156       -0.00022
C          0.64641        1.62956       -0.00012
C         -0.28529        0.63726        0.00308
H         -3.16029       -1.52224       -0.00012
H          1.77261       -2.05704        0.00048
H          3.43661       -0.26364        0.00008
H          2.74011        2.09536       -0.00002
H          0.33271        2.66296       -0.00012
