38
C10H17N7O4
C          1.30565        0.28233       -0.00619
C          0.74055       -0.36887       -1.27309
C         -0.55935       -1.10377       -0.96699
C         -1.67405       -0.07607       -0.76099
H          1.74975       -1.95037       -2.39659
H          2.65605        3.26843        0.41881
H          1.11705        3.21033       -1.52689
H          0.46095       -1.57617        3.31901
H         -0.22145       -2.94497        2.62381
H          4.11785       -2.53607       -1.61809
H          4.73105       -1.74587       -0.26819
H         -5.34335       -1.53247       -0.40469
H         -6.04165       -0.01587       -0.21759
O         -3.93035        1.21333       -0.39659
C          0.17305        2.25103        0.83351
C          0.15825        1.12363        1.90331
O          2.59035        2.30363        0.41511
O          1.13355        2.24863       -1.42659
C         -4.04065        0.00513       -0.46329
O         -2.94935       -0.76117       -0.64909
C          0.02935       -1.38377        1.33371
C          2.84515       -1.17017       -0.79399
N          0.09625       -2.03187        2.54431
N          4.01265       -1.88787       -0.90429
C          1.34655        1.80773       -0.08419
N          1.79325       -1.32257       -1.65839
N         -5.25535       -0.56797       -0.35139
N          2.64385       -0.29137        0.13761
N         -0.45405       -1.93877        0.23381
N          0.45955       -0.08777        1.13951
H          0.59625        0.37723       -2.05449
H         -0.76595        2.27563        0.28051
H          0.37995        3.21883        1.29031
H          0.92525        1.30133        2.65711
H         -0.82535        1.04893        2.36691
H         -0.81655       -1.73657       -1.81639
H         -1.48355        0.48843        0.15181
H         -1.70125        0.60573       -1.61099
