14
C3H7NO3
N          0.32091        1.60604       -0.40130
C          0.02711        0.16874       -0.47810
H          0.16451       -0.17596       -1.50290
C          0.97461       -0.59576        0.44850
O          2.31631       -0.45836       -0.02370
C         -1.39769       -0.07616       -0.05250
O         -1.98079        0.74944        0.60950
O         -2.01889       -1.21136       -0.40900
H         -0.24789        2.12664       -1.05200
H          0.20061        1.94994        0.53960
H          0.90141       -0.19046        1.45770
H          0.69951       -1.65036        0.45970
H          2.97271       -0.91876        0.51700
H         -2.93249       -1.32356       -0.11250
