27
C9H11NO6
C         -0.37280       -0.34504        0.70296
C          0.22460       -1.29614       -0.35764
C          1.78850        0.38716        0.45126
C          1.67910       -0.80334       -0.52704
C          2.65880        1.49256       -0.15004
H          0.56850       -3.28564       -0.51494
H         -4.23170        1.13856       -1.41524
H          3.53040       -1.57794       -0.25484
H          3.32190        3.30226        0.47156
O         -1.63300        1.06026       -1.75154
O         -5.22150        0.08666        0.77246
O          0.20460       -2.64564        0.11196
O          2.60190       -1.83344       -0.16724
O          2.78190        2.56456        0.78676
C         -1.81110       -0.03394        0.37806
C         -2.31400        0.64796       -0.83494
C         -4.06920        0.17236        0.39996
O          0.43150        0.85166        0.62036
C         -2.88400       -0.32764        1.13106
N         -3.65360        0.73436       -0.74934
H         -0.29600       -0.78604        1.69686
H         -0.31990       -1.20984       -1.29794
H         -2.88190       -0.83194        2.08606
H          2.19900        0.05926        1.40626
H          1.85450       -0.47574       -1.55174
H          3.64720        1.09346       -0.37754
H          2.19640        1.86136       -1.06564
