12
Na2O8S2
S         -3.95853        1.36688       -0.01023
O         -4.20543        1.20257       -1.43433
O         -3.71023        2.75578        0.34407
O         -5.01433        0.77757        0.79857
O         -2.68313        0.59867        0.30557
O         -2.62423       -0.73723       -0.30263
S         -1.34883       -1.50543        0.01317
O         -1.28333       -2.61392       -0.92653
O         -0.24443       -0.57503       -0.16223
O         -1.46433       -1.96253        1.38937
Na         8.96677       -0.14883       -0.03283
Na        17.57007        0.84147        0.01807
