7
Al2MgO4
Al         3.27863       -0.24834       -0.00249
O         -6.38457       -1.02464       -0.00839
O         -8.80057        1.16926        0.01121
O          4.48663       -1.34524       -0.01239
O          2.07063        0.84866        0.00731
Mg        12.94183        0.52796        0.00331
Al        -7.59257        0.07236        0.00141
