56
C18H36O2
C         -7.33025       -0.25000        0.00000
C         -6.46425        0.25000        0.00000
C         -5.59825       -0.25000        0.00000
C         -4.73225        0.25000        0.00000
C         -3.86615       -0.25000        0.00000
C         -3.00015        0.25000        0.00000
C         -2.13415       -0.25000        0.00000
C         -1.26815        0.25000        0.00000
C         -0.40205       -0.25000        0.00000
C          0.46395        0.25000        0.00000
C          1.32995       -0.25000        0.00000
C          2.19595        0.25000        0.00000
C          3.06205       -0.25000        0.00000
C          3.92805        0.25000        0.00000
C          4.79405       -0.25000        0.00000
C          5.66005        0.25000        0.00000
C          6.52615       -0.25000        0.00000
C          7.39215        0.25000        0.00000
O         -7.33025       -1.25000        0.00000
O         -8.19635        0.25000        0.00000
H         -6.06575        0.72490        0.00000
H         -6.86275        0.72490        0.00000
H         -5.99675       -0.72490        0.00000
H         -5.19975       -0.72490        0.00000
H         -4.33365        0.72490        0.00000
H         -5.13075        0.72490        0.00000
H         -4.26475       -0.72490        0.00000
H         -3.46765       -0.72490        0.00000
H         -2.60165        0.72490        0.00000
H         -3.39865        0.72490        0.00000
H         -2.53265       -0.72490        0.00000
H         -1.73565       -0.72490        0.00000
H         -0.86955        0.72490        0.00000
H         -1.66665        0.72490        0.00000
H         -0.80065       -0.72490        0.00000
H         -0.00355       -0.72490        0.00000
H          0.86245        0.72490        0.00000
H          0.06545        0.72490        0.00000
H          0.93145       -0.72490        0.00000
H          1.72845       -0.72490        0.00000
H          2.59455        0.72490        0.00000
H          1.79745        0.72490        0.00000
H          2.66345       -0.72490        0.00000
H          3.46055       -0.72490        0.00000
H          4.32655        0.72490        0.00000
H          3.52955        0.72490        0.00000
H          4.39555       -0.72490        0.00000
H          5.19255       -0.72490        0.00000
H          6.05865        0.72490        0.00000
H          5.26155        0.72490        0.00000
H          6.12755       -0.72490        0.00000
H          6.92465       -0.72490        0.00000
H          7.70215       -0.28690        0.00000
H          7.92905        0.56000        0.00000
H          7.08215        0.78690        0.00000
H         -8.73325       -0.06000        0.00000
