47
C21H22N2O2
C          3.10431       -1.44091        0.32024
C          3.61381        1.32119       -0.05796
C          4.38161       -0.91201        0.45694
C          4.62571        0.43219        0.26234
O          1.76271        3.58749       -0.73576
C         -0.43279        3.37829        0.05234
C          0.89181        2.82259       -0.37876
C          2.09031       -0.56461       -0.01666
C          2.31791        0.80729       -0.18006
C          0.55431       -1.59161       -1.63406
C         -0.79549       -1.16931        1.85084
C         -0.05099       -2.96811       -1.27706
C         -3.61799        1.43779       -0.06226
C         -1.45349        2.33089        0.47634
C         -3.38929        0.01779       -0.49976
N          1.14271        1.50069       -0.38176
O         -2.49979        2.22679       -0.48436
C         -0.00269       -1.78281        0.71594
C         -1.73079       -0.10431        1.24574
C         -2.09469       -2.01341       -0.54906
C          0.01051        0.53419       -0.43146
C         -0.81159        0.99899        0.76884
C          0.63591       -0.83791       -0.27296
C         -2.45389       -0.71071        0.07254
N         -0.88969       -2.67551       -0.06896
H         -0.55999        0.60619       -1.35736
H         -0.10019        1.17989        1.57464
H         -2.43849        0.27209        1.98434
H         -1.90969        2.68069        1.40244
H          0.78381       -2.39451        1.15784
H          1.54931       -1.71291       -2.06226
H         -0.09659       -1.05761       -2.32636
H         -1.38509       -1.93941        2.34834
H         -0.11739       -0.70271        2.56534
H          2.91251       -2.49361        0.46674
H         -0.67009       -3.33911       -2.09386
H          0.73571       -3.68261       -1.03476
H         -2.93189       -2.69581       -0.40266
H         -1.98309       -1.85271       -1.62136
H          3.81691        2.37119       -0.20856
H          5.19971       -1.56581        0.72104
H         -0.26639        4.05639        0.88934
H         -0.85129        3.95289       -0.77406
H          5.63571        0.80139        0.36244
H         -3.99519       -0.40671       -1.28656
H         -4.53049        1.82029       -0.51956
H         -3.70629        1.47769        1.02344
