23
C6H5N3O9
O        -12.30747       -0.26663       -1.02909
C          1.07393       -0.88953        0.55721
N          0.13843       -1.97493        0.92851
O          0.11613       -2.39533        2.07141
O         -0.60907       -2.44763        0.09111
C          2.34613       -1.19583        0.09941
O          2.73593       -2.49313       -0.00899
C          3.22123       -0.17643       -0.24849
N          4.57973       -0.50283       -0.73739
O          5.34823        0.39147       -1.04289
O          4.92923       -1.66563       -0.83419
C          2.82523        1.14287       -0.13929
C          1.55793        1.45067        0.31711
N          1.13693        2.86507        0.43291
O          1.90753        3.75687        0.12581
O          0.01993        3.13697        0.83521
C          0.67743        0.43477        0.66131
O         -0.56887        0.73817        1.11021
H        -12.53757        0.67067       -0.96869
H        -11.41077       -0.43153       -1.35119
H          2.54493       -2.89063       -0.86969
H          3.50763        1.93467       -0.41089
H         -1.23287        0.80777        0.41061
