16
C4H6O6
C          1.90129        0.04869        0.08145
C          0.48009        0.38099        0.45685
O          0.26449        1.78589        0.30935
C         -0.48051       -0.38131       -0.45805
O         -0.26491       -1.78621       -0.31055
C         -1.90171       -0.04901       -0.08275
O         -2.62631       -0.90851        0.36015
O         -2.36261        1.20179       -0.24035
O          2.62589        0.90819       -0.36145
O          2.36389       -1.20081        0.24425
H          0.30109        0.09269        1.49265
H          0.40619        2.11329       -0.58945
H         -0.30141       -0.09301       -1.49395
H         -0.40661       -2.11361        0.58815
H         -3.28081        1.36659        0.01435
H          3.28199       -1.36571       -0.01065
