60
C21H34O5
C          0.90639       -1.27523       -0.40873
C         -0.27771       -1.00583        0.50057
C          1.88179       -0.07743       -0.25053
C         -0.98451        0.25067       -0.03123
C          3.16539       -0.58213       -0.90133
C         -2.18591        0.56677        0.86057
C         -0.04081        1.44727       -0.07903
C         -3.16301       -0.61093        0.83137
C         -4.33281        0.41037       -1.12643
C          4.90159        1.35397       -0.67713
C          2.12799        0.19627        1.23447
C         -1.70941        0.79957        2.29577
H          3.96619       -0.55913       -2.76123
H          0.93629        2.55547        1.30607
H          6.43209        2.55857       -0.12233
H         -5.22391        0.94737       -2.86393
O          4.90299       -0.56503        0.68907
C          1.79919       -2.45603       -0.01163
C         -1.25401       -2.18263        0.46607
C          1.22599        1.12987       -0.89143
C          3.14929       -2.11823       -0.70113
C         -2.46241       -1.86823        1.35047
C         -2.88841        1.82367        0.34297
C         -3.63221       -0.84623       -0.60593
C         -3.35761        1.58887       -1.09433
O          3.17319       -0.26253       -2.29403
O          0.33469        1.80017        1.25387
O          6.03579        1.70927        0.11617
O         -4.77001        0.19037       -2.46903
C          4.36759        0.02057       -0.22123
H          0.57699       -1.36473       -1.44393
H          0.07189       -0.82903        1.51767
H         -1.33891        0.05407       -1.04303
H         -4.02281       -0.38573        1.46237
H          1.91969       -2.50153        1.07067
H          1.39379       -3.39223       -0.39543
H         -1.58701       -2.34863       -0.55853
H         -0.75621       -3.07883        0.83617
H          1.90719        1.98027       -0.86363
H          0.95759        0.90207       -1.92303
H          2.73849       -0.60283        1.65497
H          2.64719        1.14797        1.34737
H          1.17349        0.23867        1.75927
H          3.21309       -2.62183       -1.66573
H          3.98059       -2.42133       -0.06463
H         -0.55651        2.29017       -0.53903
H         -2.12911       -1.70153        2.37477
H         -3.15771       -2.70723        1.32697
H         -3.74881        2.04537        0.97447
H         -2.19431        2.66377        0.36607
H         -1.20871        1.76557        2.36017
H         -2.56631        0.78877        2.96937
H         -1.01381        0.01007        2.58027
H          4.12739        2.11297       -0.56483
H          5.19679        1.28827       -1.72433
H         -2.77201       -1.07023       -1.23683
H         -4.32741       -1.68543       -0.62833
H         -2.49731        1.36577       -1.72553
H         -3.85721        2.48407       -1.46433
H         -5.19351        0.63387       -0.49613
