45
C14H30O
C          7.88987       -0.42892       -0.00000
C          6.63897        0.45208        0.00000
C          5.39137       -0.43362       -0.00000
C          4.14047        0.44748        0.00000
C          2.89287       -0.43822       -0.00000
C          1.64207        0.44278        0.00000
C          0.39447       -0.44282       -0.00000
C         -0.85643        0.43818       -0.00000
C         -2.10403       -0.44742        0.00000
C         -3.35493        0.43358       -0.00000
C         -4.60253       -0.45212        0.00000
C         -5.85343        0.42898       -0.00000
C         -7.10103       -0.45672        0.00000
C         -8.35183        0.42428       -0.00000
O          9.05507        0.39828        0.00000
H          7.89107       -1.05822        0.89000
H          7.89107       -1.05822       -0.89000
H          6.63787        1.08138        0.89000
H          6.63787        1.08138       -0.89000
H          5.39257       -1.06292       -0.89000
H          5.39257       -1.06292        0.89000
H          4.13937        1.07678        0.89000
H          4.13937        1.07678       -0.89000
H          2.89407       -1.06752       -0.89000
H          2.89407       -1.06752        0.89000
H          1.64087        1.07218        0.89000
H          1.64087        1.07218       -0.89000
H          0.39557       -1.07212       -0.89000
H          0.39557       -1.07212        0.89000
H         -0.85763        1.06748        0.89000
H         -0.85763        1.06748       -0.89000
H         -2.10283       -1.07682       -0.89000
H         -2.10283       -1.07682        0.89000
H         -3.35603        1.06288        0.89000
H         -3.35603        1.06288       -0.89000
H         -4.60133       -1.08142       -0.89000
H         -4.60133       -1.08142        0.89000
H         -5.85453        1.05828        0.89000
H         -5.85453        1.05828       -0.89000
H         -7.09983       -1.08602       -0.89000
H         -7.09983       -1.08602        0.89000
H         -8.35303        1.05358        0.89000
H         -8.35303        1.05358       -0.89000
H         -9.24063       -0.20662        0.00000
H          9.88717       -0.09442       -0.00000
