13
C4H8O
O         -1.49667        0.04239        0.10542
C         -0.71147       -1.15561        0.09642
C          0.75563       -0.74991       -0.16108
C          0.76363        0.74419        0.26282
C         -0.66077        1.17889       -0.16468
H         -0.79247       -1.65801        1.06032
H         -1.05667       -1.81811       -0.69738
H          1.43433       -1.33331        0.46102
H          1.00773       -0.85501       -1.21628
H          0.89893        0.84629        1.33962
H          1.52493        1.30289       -0.28158
H         -0.68007        1.41859       -1.22788
H         -0.98707        2.03669        0.42332
