39
C11H17N3O8
C         -0.10627        2.22675        0.23507
C         -1.46227        0.03935       -1.09233
C         -3.05387       -1.29495        0.31047
H          4.51033        1.13355       -1.04713
H          4.84643       -0.46385       -0.64943
H          2.39423        2.08405       -0.49143
H         -0.20647        0.86885       -3.28443
H          1.77953       -2.99765        1.72977
H         -1.17477       -2.60325       -1.04503
H         -4.54697       -2.10965       -0.78883
H          0.01623        3.63585        1.68437
O          0.16363        1.20435       -2.45653
O          1.32713       -2.15675        1.88247
O         -0.86027       -2.15265       -0.24933
O         -3.61327       -1.87175       -0.87123
O          0.44643        2.81255        1.41547
C          1.23223       -1.32865        0.72177
C          2.93353        0.11875       -0.24193
H          3.23673       -1.73805        0.25757
N          4.22333        0.27845       -0.69013
O         -2.32267        3.04085        0.78357
C         -0.98317       -0.31035        1.32087
C          0.50243       -0.03365        1.08127
N          2.06753        1.18875       -0.31063
C          0.02513        0.30775       -1.35243
C         -1.57887        1.86075        0.47327
C         -1.58107       -0.95995        0.06647
O         -2.10377        1.26045       -0.71343
O         -1.65887        0.93055        1.55647
C          0.64103        0.93595       -0.10253
N          2.57393       -1.03035        0.22927
H         -0.02897        2.92725       -0.59643
H         -1.93667       -0.36835       -1.98493
H          0.53173       -0.63095       -1.57663
H         -1.11697       -0.97115        2.17727
H          0.94123        0.41195        1.97397
H          0.67283       -1.85605       -0.05083
H         -3.59687       -0.38395        0.56217
H         -3.13347       -2.00465        1.13387
