56
C22H24N2O8
C          1.38717       -0.24629        1.23070
C         -1.13093        0.09111        1.33150
C          1.53687        1.27821        1.35460
C          1.45237       -0.63069       -0.24790
C         -2.09593       -0.85029        0.61130
C         -4.53873       -0.66649        0.09380
C         -5.63143        0.03981       -0.38290
C         -5.48283        1.33191       -0.84890
C         -2.56543       -1.93529        1.58250
C          1.05477       -2.46639       -1.77590
C          2.52457       -2.76949        0.12410
H          1.48447        2.65151        2.84200
H         -1.97793       -2.07339       -0.99850
H         -1.27493        2.77581       -1.94320
H          5.19517       -0.40069       -1.69420
H          5.88977        0.97231       -2.36890
H         -3.88303        3.26101       -2.23900
H          6.25187        2.45721       -0.26830
C         -4.23433        1.93621       -0.83740
O          0.67527        2.86251       -0.19800
O          3.48257        2.61771        1.27910
O          3.27257       -0.79449       -1.74070
C          0.06587       -0.68099        1.83940
O          1.39767        1.69701        2.71370
O         -1.42573       -1.46119       -0.49310
O         -1.53563        2.95671       -1.02980
O         -4.08463        3.20461       -1.29490
O          5.28767        2.46031       -0.34190
C          4.70487        1.32811       -0.77290
C          0.45197        1.88301        0.48690
C          2.88647        1.67211        0.80430
C          2.77637       -0.18489       -0.81500
C         -1.79723        1.84841       -0.30320
C          3.45647        0.94271       -0.26090
C         -3.29053       -0.08439        0.10810
C         -3.12873        1.22631       -0.34950
N          5.32127        0.56111       -1.69910
N          1.32597       -2.08809       -0.38260
C         -0.81433        1.28501        0.49330
H          2.20607       -0.73359        1.75980
H         -1.65833        0.46551        2.20880
H         -0.08533       -1.73829        1.62170
H          0.12477       -0.55779        2.92080
H          0.64057       -0.14299       -0.78750
H         -1.70393       -2.49659        1.94430
H         -3.07703       -1.47129        2.42580
H         -3.24983       -2.61089        1.06940
H         -4.66613       -1.67639        0.45470
H          1.94017       -2.27709       -2.38280
H          0.80227       -3.52579       -1.82220
H          0.22057       -1.87709       -2.15660
H          2.66257       -2.52659        1.17770
H          2.40447       -3.84709        0.01240
H          3.39617       -2.44049       -0.44180
H         -6.60703       -0.42349       -0.39050
H         -6.33993        1.87221       -1.22280
