9
C4H4S
S         -1.79324        0.00000       -0.00002
C         -0.56014       -1.25420       -0.00012
C          0.64956       -0.69210       -0.00012
C          0.64956        0.69210       -0.00002
C         -0.56014        1.25420       -0.00002
H         -0.75284       -2.31680        0.00038
H          1.56006       -1.27300        0.00018
H          1.56006        1.27300        0.00028
H         -0.75284        2.31680       -0.00052
