17
C4H9NO3
N          0.10813        1.63605        0.08968
C          0.49043        0.27595        0.49228
H          0.50133        0.20865        1.58008
C         -0.52017       -0.72545       -0.07052
H         -0.28787       -1.72365        0.30078
O         -0.45147       -0.72035       -1.49792
C         -1.93027       -0.33135        0.37368
C          1.86273       -0.03975       -0.04442
O          2.31113        0.59655       -0.96862
O          2.58693       -1.02785        0.50418
H          0.09063        1.72425       -0.91532
H         -0.78047        1.89565        0.49098
H         -0.64727        0.13795       -1.89802
H         -2.16247        0.66675        0.00228
H         -2.65017       -1.04485       -0.02732
H         -1.98257       -0.33525        1.46238
H          3.46143       -1.19325        0.12588
