15
C5H6N2O2
N         -1.55907        0.88173        0.00028
C         -1.98727       -0.39377        0.00038
O         -3.18087       -0.62537        0.00018
N         -1.11287       -1.41707        0.00038
C          0.21403       -1.17717        0.00028
O          1.00583       -2.10237       -0.00022
C          0.67813        0.16033        0.00008
C          2.15583        0.45583        0.00038
C         -0.22097        1.16773        0.00018
H         -2.20507        1.60533       -0.00382
H         -1.43857       -2.33077        0.00078
H          2.51233        0.52683       -1.02722
H          2.33753        1.39993        0.51408
H          2.68653       -0.34557        0.51458
H          0.11443        2.19433       -0.00032
