26
C10H8Cl8
C         -1.60870        1.24453        0.94474
C         -1.72620       -0.68627       -0.65916
Cl         3.30360       -1.72877       -0.48196
Cl        -0.68040       -2.55467       -0.72496
Cl        -2.73800        2.09823       -0.17186
Cl        -2.45910       -1.93197        0.41884
Cl         0.94590        1.85693        2.03634
Cl         2.70430       -0.55607        2.08544
Cl         2.98420        1.44313       -0.79006
Cl        -0.72250       -1.16667        2.65844
C         -0.05810        1.74333       -1.72846
C          0.64280       -1.78457        0.22734
C          1.64080       -1.07147       -0.71396
C          0.20310        0.90923       -0.75276
C          0.07380       -0.64477        1.12734
C          1.58340        0.42653       -0.28506
C         -0.79700        0.21293        0.15864
C          1.33720        0.27853        1.25774
H          1.15800       -2.52827        0.83524
H          1.32890       -1.18177       -1.75256
H         -0.93280        1.96783        1.40084
H         -2.18030        0.74003        1.72374
H         -1.15540       -1.17797       -1.44686
H         -2.51600       -0.08217       -1.10576
H         -1.08110        2.00313       -1.95746
H          0.74950        2.17113       -2.30386
