24
C10H6Cl8
C          1.10980       -1.40193       -0.61958
C          1.64520        0.87028        0.01332
C          2.26970       -0.37723       -0.65808
Cl        -1.57130       -2.74923        0.26892
Cl        -0.32870        2.59088        1.74162
Cl         2.51980        2.36307       -0.49408
Cl        -1.90000       -0.35342        2.77732
Cl         0.92310       -0.77132        1.88262
Cl        -3.93270       -0.61482       -0.96068
Cl         3.68170       -0.97422        0.29112
Cl        -3.18960        2.53408       -0.08228
C         -0.15100       -0.56422       -0.90898
C          0.19290        0.89567       -0.50188
C         -2.44760       -0.08682       -0.23328
C         -2.15500        1.15387        0.11322
C         -1.25200       -0.98123        0.11652
C         -0.74510        1.16748        0.71642
C         -0.73440       -0.24553        1.40602
H         -0.48850       -0.64422       -1.94228
H          0.04100        1.60577       -1.31468
H          1.24720       -2.16162       -1.38908
H          1.04230       -1.86393        0.36532
H          1.66260        0.76997        1.09852
H          2.56070       -0.16133       -1.68608
