18
C6H3N3O6
N         -2.47899        0.61537       -0.00192
O         -3.53379        0.00637       -0.00282
O         -2.47899        1.83337        0.00358
C         -1.19719       -0.12473       -0.00152
C          0.00001        0.56637       -0.00052
C          1.19711       -0.12473       -0.00022
C          1.19711       -1.50713       -0.00032
C          0.00001       -2.19823       -0.00042
C         -1.19719       -1.50713        0.00358
N          2.47901        0.61537       -0.00012
O          3.53381        0.00637        0.00018
O          2.47901        1.83337       -0.00042
N          0.00001        2.04657       -0.00032
O         -0.00079        2.65547        1.05448
O          0.00081        2.65577       -1.05512
H          2.13251       -2.04713       -0.00082
H          0.00001       -3.27823       -0.00092
H         -2.13249       -2.04713        0.00358
