27
C11H12N2O2
N          1.58915        1.19155        0.95289
C          2.19225       -0.05375        0.45969
H          2.14585       -0.81375        1.23969
C          1.42485       -0.53935       -0.77171
C          0.01855       -0.90745       -0.37431
C         -0.42585       -2.13305       -0.05431
N         -1.75825       -2.08085        0.25249
C         -2.21555       -0.78745        0.13449
C         -3.45675       -0.18945        0.32479
C         -3.60155        1.16575        0.12259
C         -2.52035        1.94255       -0.26971
C         -1.29195        1.37555       -0.46291
C         -1.12125        0.00535       -0.25761
C          3.63095        0.19755        0.08809
O          4.01075        1.32365       -0.12961
O          4.49035       -0.82965       -0.00101
H          1.61995        1.91235        0.24749
H          0.64385        1.03515        1.26899
H          1.39545        0.25465       -1.51791
H          1.92465       -1.41295       -1.19011
H          0.17875       -3.02795       -0.04141
H         -2.30005       -2.84175        0.51409
H         -4.30425       -0.78545        0.62969
H         -4.56625        1.62825        0.27059
H         -2.65085        3.00345       -0.42391
H         -0.45525        1.98615       -0.76851
H          5.40275       -0.61905       -0.24241
