24
C9H11NO3
N         -1.57365        1.44219       -0.86067
C         -1.80485        0.04759       -0.46107
H         -1.50995       -0.61681       -1.27327
C         -0.97515       -0.27021        0.78453
C          0.49105       -0.19051        0.44523
C          1.16725        1.00759        0.58303
C          2.51125        1.08319        0.27273
C          3.18245       -0.04431       -0.17767
C          2.50175       -1.24531       -0.31517
C          1.15905       -1.31711        0.00193
O          4.50445        0.02769       -0.48407
C         -3.26695       -0.15141       -0.15487
O         -3.96665        0.80099        0.09643
O         -3.79195       -1.38681       -0.16147
H         -2.06025        1.65809       -1.71787
H         -1.83945        2.07829       -0.12397
H         -1.20625        0.45069        1.56873
H         -1.21335       -1.27511        1.13303
H          0.64415        1.88509        0.93333
H          3.03885        2.01939        0.38023
H          3.02205       -2.12441       -0.66547
H          0.62865       -2.25181       -0.10487
H          5.09165       -0.16251        0.26033
H         -4.73425       -1.46441        0.04093
