49
C19H26O4
C         -0.77354       -2.23094       -0.82286
C          2.91286       -1.30474       -0.29326
C          3.07906       -0.11704        0.65684
C         -2.23584       -1.13684       -3.00116
C         -4.02694       -0.37364        3.22044
C         -4.63694        2.98426       -0.21966
C          1.29486       -2.91924        0.96704
C          3.36426        2.50816       -0.33406
C          5.94366        2.36086        0.03794
O         -1.52904       -1.25654        1.74614
O         -4.22264        0.77426       -2.28006
C          1.54026       -1.90114       -0.11666
C          4.58006        1.72056        0.08134
O         -3.48264        0.60996        2.33814
O         -4.87434        1.65866        0.25834
C         -1.85594       -1.21404       -0.56686
C         -3.20884        0.21496        1.06844
C         -3.90254        0.73826        0.03124
C         -2.15334       -0.78524        0.81674
C         -2.54254       -0.69674       -1.59296
C         -3.60104        0.30626       -1.34726
C          0.56046       -1.53474       -0.90516
C          4.45166        0.47946        0.48014
H         -0.75574       -2.95534       -0.00856
H         -0.97344       -2.74554       -1.76266
H         -2.85574       -1.99634       -3.25636
H         -2.44604       -0.31964       -3.69116
H         -1.18394       -1.41294       -3.07466
H          0.70866       -0.73364       -1.61416
H         -4.28984        0.09476        4.16894
H         -4.91884       -0.81064        2.77144
H         -3.28724       -1.15524        3.39384
H         -3.78464        3.41326        0.30724
H         -4.42494        2.95266       -1.28836
H         -5.52004        3.59806       -0.04246
H          3.03226       -0.96614       -1.32246
H          3.66806       -2.05804       -0.06876
H          1.38246       -3.92234        0.54974
H          2.03116       -2.79014        1.76034
H          0.29346       -2.78154        1.37484
H          2.32386        0.63626        0.43234
H          2.95966       -0.45564        1.68604
H          5.32946       -0.11634        0.68244
H          2.90926        2.96466        0.54494
H          3.65896        3.28756       -1.03686
H          2.64526        1.84206       -0.81086
H          6.69286        1.64296        0.37164
H          6.16706        2.67106       -0.98286
H          5.95726        3.23146        0.69354
