36
C11H24O
C          6.00382       -0.46366       -0.00000
C          4.76662        0.43644        0.00000
C          3.50552       -0.42996       -0.00000
C          2.26832        0.47014        0.00000
C          1.00732       -0.39626       -0.00000
C         -0.22988        0.50384       -0.00000
C         -1.49098       -0.36266        0.00000
C         -2.72818        0.53744       -0.00000
C         -3.98918       -0.32896        0.00000
C         -5.22638        0.57114       -0.00000
C         -6.48748       -0.29526        0.00000
O          7.18162        0.34564        0.00000
H          5.99532       -1.09286        0.89000
H          5.99532       -1.09286       -0.89000
H          4.77502        1.06574        0.89000
H          4.77502        1.06574       -0.89000
H          3.49712       -1.05916       -0.89000
H          3.49712       -1.05916        0.89000
H          2.27682        1.09944        0.89000
H          2.27682        1.09944       -0.89000
H          0.99882       -1.02556       -0.89000
H          0.99882       -1.02556        0.89000
H         -0.22148        1.13304        0.89000
H         -0.22148        1.13304       -0.89000
H         -1.49938       -0.99186       -0.89000
H         -1.49938       -0.99186        0.89000
H         -2.71968        1.16674        0.89000
H         -2.71968        1.16674       -0.89000
H         -3.99768       -0.95826       -0.89000
H         -3.99768       -0.95826        0.89000
H         -5.21798        1.20034        0.89000
H         -5.21798        1.20034       -0.89000
H         -6.49598       -0.92456       -0.89000
H         -6.49598       -0.92456        0.89000
H         -7.36888        0.34594       -0.00000
H          8.00602       -0.15976       -0.00000
