13
CH5N3O4
N         -7.75507        0.35440       -0.08000
O         -8.74817       -0.19390        0.36350
O         -6.65187       -0.42090       -0.51230
O         -7.71297        1.56920       -0.15640
N          5.40583       -0.91250       -0.15370
C          4.98913        0.36380       -0.03650
O          5.71493        1.27470       -0.38560
N          3.76793        0.63050        0.46760
H         -6.77977       -1.37460       -0.41660
H          6.28463       -1.10450       -0.51650
H          4.82833       -1.63910        0.12850
H          3.18893       -0.09620        0.74610
H          3.46813        1.54910        0.55190
