36
C11H14N2O9
C          0.85445       -0.31893        0.07695
H          0.50195       -1.29183        0.41965
C          1.64395       -0.46063       -1.24925
H          1.69935        0.49367       -1.77295
O          1.06295       -1.46463       -2.08395
C          3.04215       -0.89823       -0.74915
H          3.82505       -0.39673       -1.31805
O          3.18635       -2.31673       -0.84515
C          3.07395       -0.44853        0.72445
H          3.17625       -1.31723        1.37495
C          4.24405        0.51097        0.95045
O          4.33615        0.83097        2.34005
O          1.83045        0.22017        0.99405
N         -0.26945        0.60627       -0.08815
C         -0.03255        1.89467       -0.39435
O          1.11395        2.27667       -0.53085
N         -1.04495        2.76707       -0.55245
C         -2.32245        2.36187       -0.40515
O         -3.23815        3.15177       -0.54875
C         -2.59025        1.00597       -0.08155
C         -1.55475        0.14927        0.06565
O         -3.87235        0.57287        0.07285
C         -4.05655       -0.80643        0.39825
C         -5.52895       -1.09953        0.52855
O         -6.33775       -0.21783        0.36005
O         -5.94205       -2.34013        0.83175
H          1.52195       -1.59033       -2.92565
H          4.04445       -2.64613       -0.54465
H          5.17025        0.03777        0.62435
H          4.08115        1.42387        0.37745
H          5.05795        1.43677        2.55725
H         -0.85465        3.69217       -0.77325
H         -1.73725       -0.88633        0.31175
H         -3.63125       -1.42593       -0.39135
H         -3.55725       -1.02693        1.34175
H         -6.89615       -2.47963        0.90455
