19
C5H11NO2
N          0.35587        2.00719        0.24511
C          0.43797        0.55319        0.43821
H          0.27337        0.31649        1.48931
C         -0.63063       -0.13541       -0.41319
C         -0.54513       -1.64971       -0.21199
C         -2.01573        0.35779        0.00991
C          1.80227        0.06739        0.02151
O          2.48567        0.74169       -0.71199
O          2.25827       -1.11451        0.46531
H          1.00837        2.48899        0.84521
H          0.50517        2.25249       -0.72219
H         -0.46603        0.10139       -1.46429
H         -0.70973       -1.88651        0.83911
H         -1.30643       -2.14041       -0.81849
H          0.44167       -2.00121       -0.51339
H         -2.07663        1.43669       -0.13339
H         -2.77703       -0.13281       -0.59659
H         -2.18043        0.12109        1.06101
H          3.13907       -1.38381        0.17091
