19
C8H8O3
O         -3.84588        0.00700        0.03311
C         -2.80868       -0.62180        0.03241
C         -1.52138        0.08510        0.04211
C         -0.32268       -0.63880        0.04141
C          0.88402        0.03140        0.05061
O          2.05022       -0.66830        0.04991
C          1.95152       -2.09390        0.03951
C          0.90772        1.42600        0.06011
O          2.09582        2.08260        0.06861
C         -0.28098        2.14500        0.06031
C         -1.48908        1.48480        0.04631
H         -2.83178       -1.70150        0.02931
H         -0.34228       -1.71860        0.03411
H          1.41702       -2.41450       -0.85479
H          2.95162       -2.52740        0.04011
H          1.41052       -2.42710        0.92511
H          2.44312        2.27880       -0.81219
H         -0.25728        3.22470        0.06771
H         -2.41158        2.04650        0.04621
