49
C17H28ClNO2
H         16.55329       -0.24056       -0.02860
H         -1.45801       -0.54096       -0.89700
H         -2.10541        1.82184        0.81190
H         -2.19171        1.79034       -0.96570
H         -0.17481        1.16974       -2.30340
H          1.34819        0.75914       -1.47890
H         -2.02021        4.11654       -0.12400
H         -0.49711        3.70594        0.70050
H          1.51969        3.08534       -0.63720
H          1.43349        3.05374       -2.41480
H         -0.99771        3.52884       -2.30530
H         -0.06091        4.79884       -1.48210
H         -1.54971       -1.72376        1.33280
H         -0.68421       -0.34166        2.04630
H         -0.13621       -1.87796       -2.24930
H          1.33219       -0.73486        1.58860
H         -3.80831       -1.47806        0.59570
H         -3.24241       -0.28536       -0.59820
H         -4.55251        0.13754        0.53000
H         -2.42441        0.43564        3.43860
H         -3.31751       -1.04546        3.01790
H         -4.08891        0.54614        2.81790
H          1.83549       -3.31356       -2.58080
H          3.30929       -2.16436        1.26260
H          5.56559       -4.32216       -0.07640
H          4.27129       -4.01866        1.10720
H          5.13819       -2.65196        0.36630
C          0.61819       -1.94506       -1.47940
C          1.44439       -1.30086        0.67570
C          1.72609       -2.74876       -1.66680
C          2.55379       -2.10356        0.49330
C         -1.36301       -0.65286        1.25230
C         -3.62271       -0.41936        0.41440
C         -3.14901       -0.00186        2.75190
C          4.74769       -3.65536        0.19660
C          0.47729       -1.22196       -0.30930
C          2.69759       -2.83006       -0.67990
H          0.82919        2.33294        1.00390
C         -1.55511        2.01314       -0.10930
C          0.46169        1.39254       -1.44710
C         -1.13361        3.48314       -0.15580
C          0.88319        2.86254       -1.49360
C         -0.36121        3.75154       -1.44900
O          0.52379        1.41614        0.96870
O          3.78809       -3.62036       -0.86170
Cl       -14.88811       -1.81646       -0.69730
C         -0.73221       -0.34596       -0.10740
N         -2.63201        0.07624        1.37920
C         -0.31071        1.12414       -0.15390
