73
C28H44O
C          0.28876        1.72296       -0.52683
C         -0.74784        1.08166       -1.49243
C          1.61296        1.15106       -1.00873
C          2.58946        1.01286        0.16097
C          5.43196       -1.54204       -0.21453
C         -5.96274       -2.41124       -0.50803
C          0.01706        1.23626        0.89807
C          2.96116        2.40256        0.68187
C          5.06016       -2.93184       -0.73543
C          7.67166       -2.40254        0.48247
C          6.78016       -0.29054        1.47617
H         -4.91694       -3.98304       -1.24083
C          0.09366        3.22036       -0.57613
C         -0.28464       -0.37684       -1.50183
C          1.26236       -0.24534       -1.58583
C         -1.26914        3.53186        0.06487
C         -2.41244        2.82976       -0.66503
C         -4.75704       -1.73024        0.14757
C         -7.59584       -0.76854        0.44487
C         -7.19684       -2.24634        0.37977
O         -5.68574       -3.80214       -0.68273
C         -2.08964        1.35836       -0.88223
C         -5.09674       -0.27024        0.37167
C         -6.41504        0.02196        0.97217
C          6.40836       -1.68034        0.95527
C         -2.93914        0.38496       -0.55393
C          3.83366        0.30146       -0.30463
C         -4.23704        0.71486        0.03937
C          4.18766       -0.83074        0.25117
C         -6.55874        0.93686        1.93077
H         -0.67844        1.52306       -2.48663
H          2.03906        1.78576       -1.78573
H          0.88746        3.71546       -0.01683
H          0.10196        3.56066       -1.61163
H          0.22256        0.16776        0.96237
H          0.66166        1.77276        1.59437
H         -1.02644        1.42156        1.15247
H         -0.58004       -0.88194       -0.58223
H         -0.67564       -0.90064       -2.37413
H          1.58816       -0.31404       -2.62373
H          1.73726       -1.02594       -0.99153
H          2.12026        0.43886        0.96007
H         -1.25624        3.20336        1.10407
H         -1.43734        4.60846        0.03617
H         -2.67034       -0.64694       -0.72543
H         -3.32264        2.91376       -0.07123
H         -2.56954        3.30926       -1.63133
H          4.43356        0.72506       -1.09663
H          2.07496        2.88516        1.09397
H          3.71856        2.30826        1.46007
H          3.35486        3.00426       -0.13723
H         -4.50574        1.74676        0.21087
H          3.58786       -1.25434        1.04307
H          5.90116       -0.96804       -1.01363
H         -4.54034       -2.20774        1.10317
H         -3.88964       -1.80904       -0.50783
H          5.93916       -2.25434        1.75427
H          5.96006       -3.44634       -1.07223
H          4.59096       -3.50584        0.06357
H          4.36456       -2.83334       -1.56883
H         -7.85874       -0.41494       -0.55203
H         -8.44734       -0.64734        1.11447
H         -5.69934        1.48546        2.28697
H         -7.53464        1.12956        2.35137
H         -6.15274       -1.95474       -1.47943
H          7.40676       -3.39264        0.11137
H          8.14086       -1.82854       -0.31653
H          8.36726       -2.50104        1.31587
H          5.88026        0.22396        1.81297
H          7.47586       -0.38904        2.30947
H          7.24936        0.28346        0.67707
H         -8.02144       -2.82634       -0.03473
H         -6.97144       -2.60544        1.38387
