32
C10H16N2O3S
C         -2.36617       -0.13281       -0.94225
C         -3.62737        0.44129       -0.28555
C         -1.10117        0.67369       -0.58875
C          0.10243       -0.25451       -0.41295
C          1.36313        0.58239       -0.18675
C          2.56663       -0.34581       -0.01105
C          3.82733        0.49109        0.21515
H         -1.55477       -2.12621       -0.58115
H         -4.88727       -0.60951        1.15355
O         -3.42197       -2.72771        1.08905
O          4.86453       -1.62111        0.33605
C         -3.32807        1.68729        0.57105
O          6.23343        0.09339        0.60045
C          5.01283       -0.42311        0.38825
C         -3.26847       -1.68901        0.47585
H          6.96283       -0.53261        0.70545
N         -2.25277       -1.48521       -0.37405
N         -4.10017       -0.64441        0.58765
S         -1.55647        1.46069        1.01005
H         -2.49237       -0.18161       -2.02375
H         -4.37697        0.66979       -1.04315
H         -0.89997        1.42949       -1.34795
H         -3.46857        2.59859       -0.01025
H         -3.94957        1.69909        1.46635
H         -0.06197       -0.90361        0.44705
H          0.22603       -0.86271       -1.30895
H          1.52743        1.23159       -1.04685
H          1.23953        1.19069        0.70925
H          2.40233       -0.99491        0.84905
H          2.69023       -0.95401       -0.90705
H          3.99173        1.14029       -0.64485
H          3.70373        1.09939        1.11115
