81
C29H50O2
C         -4.49795        1.55232        0.04869
C          0.37995        0.48642        0.24829
C          5.31605       -0.26708        0.05779
C         -3.15935        1.93982        0.68039
C         -2.05905        1.01942        0.14849
C         -0.72045        1.40682        0.78019
C          1.73615        0.95142        0.78249
C          2.84795        0.10972        0.15299
C          4.20425        0.57462        0.68719
C          6.67745        0.27752        0.49469
C          7.78825       -0.48388       -0.23161
C          9.14965        0.06072        0.20529
C         -5.30735       -2.51078        0.64219
C         -9.51165        1.19472       -0.76711
C         -4.37685        1.58562       -1.47621
C         -7.96375       -3.49218        0.09259
C          0.11365       -0.94728        0.71139
C          5.17715       -1.72028        0.51599
C         10.17455       -0.41868       -2.02241
C         11.62165       -0.24308        0.00679
H        -10.09195       -1.80788       -1.51401
C         -6.40415       -1.54478        0.27469
C         -8.41395        0.22972       -0.40011
C         -7.67445       -2.01538        0.01219
C         -8.68425       -1.12748       -0.32691
C         -6.88335        2.18552       -0.23281
C         -5.58675        2.53302        0.50279
O         -9.93765       -1.58738       -0.58521
C         -6.13155       -0.18288        0.20199
C         -7.13935        0.70272       -0.13791
C         10.26045       -0.70058       -0.52101
O         -4.86835        0.24002        0.47329
H         -7.71365        2.72672        0.22079
H         -6.79395        2.47182       -1.28071
H         -5.28625       -2.64198        1.72399
H         -5.49415       -3.47188        0.16319
H         -4.34845       -2.11708        0.30509
H         -5.73855        2.44112        1.57829
H         -5.28785        3.55252        0.25909
H         -9.53405        1.32522       -1.84901
H        -10.46995        0.80072       -0.42881
H         -9.32495        2.15632       -0.28891
H         -2.92315        2.97312        0.42619
H         -3.22595        1.83822        1.76359
H         -5.33455        1.31812       -1.92261
H         -4.09415        2.58842       -1.79641
H         -3.61555        0.87402       -1.79581
H         -8.27635       -3.74658        1.10529
H         -8.75975       -3.74518       -0.60781
H         -7.06425       -4.05298       -0.16171
H         -2.29525       -0.01388        0.40269
H         -1.99245        1.12092       -0.93471
H         -0.78695        1.30532        1.86339
H         -0.48425        2.44012        0.52599
H          0.38735        0.52092       -0.84111
H          1.88655        2.00062        0.52819
H          1.75995        0.83312        1.86579
H         -0.85255       -1.27848        0.33089
H          0.89765       -1.60298        0.33249
H          0.10625       -0.98178        1.80089
H          2.69765       -0.93948        0.40729
H          2.82425        0.22802       -0.93031
H          4.22795        0.45632        1.77049
H          4.35455        1.62382        0.43289
H          5.23725       -0.21948       -1.02831
H          6.74145        1.33712        0.24709
H          6.79215        0.14832        1.57089
H          4.20725       -2.10818        0.20469
H          5.96925       -2.31988        0.06749
H          5.25605       -1.76788        1.60209
H          7.72435       -1.54348        0.01599
H          7.67355       -0.35458       -1.30781
H          9.21355        1.12032       -0.04231
H          9.26435       -0.06848        1.28149
H         10.14315       -1.76988       -0.34491
H         10.29175        0.65062       -2.19851
H         10.96585       -0.96108       -2.53981
H          9.20475       -0.74458       -2.39841
H         11.68285       -0.44388        1.07639
H         12.41295       -0.78538       -0.51061
H         11.73895        0.82622       -0.16941
