21
C11H8O2
C          1.50115       -1.60341        0.00048
C          2.22845        1.08689        0.00028
C          2.83825       -1.23691        0.00008
C          3.19885        0.09679       -0.00002
C         -3.40035       -0.29821       -0.00042
O         -1.25005       -2.15341        0.00118
O          0.12955        2.94819        0.00078
C         -0.91675       -0.98511        0.00058
C         -0.17145        1.77119        0.00038
C         -1.94075        0.07679        0.00028
C          0.51685       -0.62231        0.00068
C          0.88395        0.73529        0.00058
C         -1.59105        1.37009        0.00018
H          1.22555       -2.64761       -0.00392
H          2.51635        2.12779        0.00058
H          3.60325       -1.99931        0.00028
H         -2.35905        2.12939        0.00038
H          4.24375        0.36989       -0.00062
H         -3.75265       -0.38881        1.02708
H         -3.97345        0.47339       -0.51432
H         -3.53045       -1.25061       -0.51442
