36
C13H19Cl2NO
H         22.86169        3.24143        0.75855
C          1.16299       -2.81867        0.60955
C          1.18579       -0.91417       -0.88025
C          2.28249       -1.44287       -1.52725
C          2.81969       -2.64947       -1.11365
C         -0.23891        1.41693        0.90335
C         -3.59641        0.06723       -1.11575
C         -2.84741        2.35443       -0.44495
C         -4.76271        1.27023        0.73765
H         -2.83041       -0.44207        1.38355
C          0.61529       -1.60017        0.19695
C          2.26109       -3.33527       -0.04805
O         -1.04811       -1.63987        1.82535
C         -0.55581       -1.04247        0.89215
C         -1.14301        0.27113        0.44425
Cl         2.94379       -4.84767        0.46215
C         -3.41171        1.02583        0.06235
N         -2.47911        0.43603        1.03205
Cl        14.48399        1.08333        0.36145
H         -1.22041        0.28263       -0.64295
H          0.73069       -3.35197        1.44335
H          0.76829        0.02773       -1.20435
H          2.72349       -0.91407       -2.35935
H          3.67869       -3.05847       -1.62485
H          0.76919        1.26043        0.51945
H         -0.62921        2.36163        0.52495
H         -0.21261        1.44493        1.99265
H         -3.98871       -0.88287       -0.75295
H         -4.29641        0.50023       -1.83025
H         -2.63571       -0.09877       -1.60315
H         -1.83331        2.20123       -0.81395
H         -3.47491        2.73103       -1.25265
H         -2.83191        3.07763        0.37045
H         -4.63111        1.95313        1.57695
H         -5.45471        1.70783        0.01815
H         -5.16471        0.32373        1.09905
