6
O4SiZr
Zr         8.95532        0.00002       -0.00000
O         -3.09628        0.96242        0.17400
O         -1.52708       -0.81428        1.38830
O         -2.05508       -1.06068       -1.21060
O         -0.48578        0.91252       -0.35170
Si        -1.79108        0.00002       -0.00000
