19
C6H11NO
C         -1.73307        0.08872        0.01712
C         -0.98587       -1.06568       -0.61688
C          0.14013       -1.49268        0.32792
C          1.37683       -0.63988        0.11042
C          1.19593        0.81412        0.50622
C          0.19613        1.51072       -0.41868
N         -1.16197        1.29082        0.10462
O         -2.85637       -0.07918        0.44232
H         -1.66807       -1.90098       -0.77468
H         -0.56337       -0.74888       -1.57048
H         -0.19537       -1.38208        1.35902
H          0.38763       -2.53788        0.14192
H          2.19613       -1.05998        0.69382
H          1.64753       -0.68218       -0.94458
H          0.82993        0.86342        1.53182
H          2.15703        1.32462        0.44462
H          0.40813        2.57952       -0.44788
H          0.27353        1.09262       -1.42228
H         -1.64477        2.02482        0.51562
