320

C       -7.684803   -3.819022    0.698222 
C       -7.684905   -3.815895   -0.714302 
C       -6.938598   -4.949814   -1.155430 
C       -6.489620   -5.657718   -0.012163 
C       -6.938470   -4.954947    1.134244 
C       -4.815211    1.027127    7.026664 
C       -5.503977   -0.137759    6.587994 
C       -4.763771   -1.272636    7.021611 
C       -3.622547   -0.809035    7.730501 
C       -3.654401    0.611827    7.733657 
C       -7.153208    4.639563   -1.134194 
C       -7.847945    3.471432   -0.698120 
C       -7.847884    3.468302    0.714421 
C       -7.153064    4.634422    1.155581 
C       -6.736043    5.361490    0.012258 
C       -3.623425   -0.774603   -7.733602 
C       -4.764566   -1.241351   -7.026642 
C       -5.504722   -0.108434   -6.587915 
C       -4.816017    1.058414   -7.021505 
C       -3.655283    0.646260   -7.730457 
C        0.887116   -7.731560   -3.654754 
C       -0.540305   -7.763340   -3.654696 
C       -0.993685   -7.058226   -4.797181 
C        0.147399   -6.587389   -5.502852 
C        1.308453   -7.006903   -4.797273 
C        0.148034   -6.611911    5.473628 
C       -0.993148   -7.079608    4.766004 
C       -0.539897   -7.779570    3.620353 
C        0.887550   -7.747817    3.620391 
C        1.309016   -7.028302    4.766074 
C        7.684812    3.819026   -0.698227 
C        6.938488    4.954963   -1.134256 
C        6.489620    5.657718    0.012160 
C        6.938580    4.949797    1.155418 
C        7.684896    3.815891    0.714297 
C        3.654402   -0.611828   -7.733664 
C        3.622546    0.809035   -7.730495 
C        4.763764    1.272637   -7.021608 
C        5.503976    0.137758   -6.587994 
C        4.815217   -1.027126   -7.026666 
C       -1.309017    7.028295   -4.766065 
C       -0.887549    7.747805   -3.620389 
C        0.539898    7.779583   -3.620355 
C        0.993146    7.079615   -4.766012 
C       -0.148031    6.611910   -5.473628 
C       -1.308451    7.006909    4.797280 
C       -0.147402    6.587389    5.502852 
C        0.993687    7.058221    4.797174 
C        0.540305    7.763327    3.654694 
C       -0.887117    7.731572    3.654756 
C        3.655282   -0.646260    7.730451 
C        4.816011   -1.058415    7.021502 
C        5.504721    0.108436    6.587915 
C        4.764572    1.241351    7.026645 
C        3.623426    0.774603    7.733609 
C        6.736043   -5.361490   -0.012256 
C        7.153045   -4.634407   -1.155569 
C        7.847874   -3.468298   -0.714416 
C        7.847954   -3.471436    0.698126 
C        7.153226   -4.639579    1.134206 
C       -7.909798   -1.405973    0.717693 
C       -7.964642    1.047582    0.723152 
C       -6.425283    1.101031    4.721716 
C       -7.218029    2.311637    2.750859 
C       -6.368974   -1.408290    4.716028 
C       -7.106921   -2.644427    2.739755 
C       -7.411412   -0.172145    2.818091 
C       -7.076780    1.084100    3.454779 
C       -7.797409    2.279897    1.438831 
C       -7.020788   -1.415002    3.449178 
C       -7.687369   -2.632781    1.427900 
C       -7.822774   -0.178246    1.444500 
C       -6.213979   -0.151057    5.395965 
C       -7.909897   -1.402784   -0.723044 
C       -7.964707    1.050771   -0.717581 
C       -6.425811    1.122058   -4.716048 
C       -7.218295    2.323868   -2.739754 
C       -6.369501   -1.387263   -4.721509 
C       -7.107263   -2.632193   -2.750651 
C       -7.411718   -0.159590   -2.817984 
C       -7.077149    1.099506   -3.449130 
C       -7.797515    2.286278   -1.427797 
C       -7.021182   -1.399594   -3.454622 
C       -7.687588   -2.626405   -1.438720 
C       -7.822932   -0.171825   -1.444391 
C       -6.214584   -0.127022   -5.395873 
C       -6.354026   -3.784392   -3.198887 
C       -5.621069   -2.535945   -5.168192 
C       -2.307576   -5.219374   -5.672555 
C       -3.573191   -3.261728   -6.420833 
C       -3.053723   -6.495717   -3.653500 
C       -5.053822   -5.786081   -2.427884 
C       -4.473454   -4.667858   -4.571647 
C       -3.485533   -4.420564   -5.595180 
C       -4.725835   -2.414750   -6.284542 
C       -4.232207   -5.689863   -3.587549 
C       -6.192055   -4.914868   -2.326884 
C       -5.525961   -3.698759   -4.348898 
C       -2.185901   -6.338240   -4.783047 
C       -4.594470   -6.506096   -1.263627 
C       -2.591280   -7.208845   -2.489959 
C       -0.544926   -7.949408    1.202907 
C       -0.545053   -7.943922   -1.238046 
C       -2.590986   -7.219889    2.458301 
C       -4.594327   -6.511655    1.235301 
C       -2.666704   -7.468941   -0.016373 
C       -1.266516   -7.851643   -0.017308 
C       -1.263858   -7.758618   -2.469431 
C       -3.305481   -7.126713    1.226531 
C       -5.275582   -6.345852   -0.013754 
C       -3.305635   -7.121153   -1.257713 
C       -1.263595   -7.769579    2.435184 
C       -6.353658   -3.798628    3.182791 
C       -5.620477   -2.558946    5.157504 
C       -2.306955   -5.244630    5.649667 
C       -3.572442   -3.290271    6.406691 
C       -3.053315   -6.511971    3.625075 
C       -5.053560   -5.796868    2.402796 
C       -4.472926   -4.688202    4.551417 
C       -3.484888   -4.445453    5.575910 
C       -4.725100   -2.442689    6.274280 
C       -4.231796   -5.705799    3.562813 
C       -6.191802   -4.925230    2.305776 
C       -5.525461   -3.718093    4.333060 
C       -2.185380   -6.359543    4.755200 
C       -5.728729    2.281992    5.168277 
C       -6.516982    3.496364    3.199074 
C       -3.341535    6.353072    3.653729 
C       -5.307761    5.554350    2.428033 
C       -2.538768    5.111242    5.672797 
C       -3.715486    3.098952    6.421136 
C       -4.678005    4.463431    4.571996 
C       -4.482773    5.495246    3.587809 
C       -6.405713    4.632926    2.327017 
C       -3.679902    4.260638    5.595573 
C       -4.828944    2.201081    6.284601 
C       -5.685888    3.447932    4.349067 
C       -2.467447    6.234540    4.783319 
C       -1.206826   -0.765792    7.903903 
C        1.240088   -0.711070    7.903835 
C        1.359963   -4.715873    6.370181 
C        2.539566   -2.709125    7.127028 
C       -1.147533   -4.771887    6.370126 
C       -2.415700   -2.819791    7.126774 
C        0.063658   -2.842179    7.373701 
C        1.324348   -3.448429    7.016475 
C        2.486423   -1.397786    7.706771 
C       -1.168663   -3.504078    7.016305 
C       -2.421210   -1.507519    7.706693 
C        0.032781   -1.459708    7.789234 
C        0.121320   -5.419282    6.185810 
C       -2.538750    2.677356    7.139269 
C       -1.359228    4.687419    6.391143 
C        2.416517    2.788032    7.138954 
C        1.148264    4.743439    6.391051 
C        1.207728    0.730580    7.907086 
C       -1.239187    0.675858    7.907061 
C       -0.062814    2.809303    7.386259 
C        1.169473    3.472782    7.031648 
C       -0.120609    5.391627    6.209739 
C       -0.031892    1.424992    7.795644 
C       -2.485547    1.363441    7.713168 
C       -1.323550    3.417122    7.031850 
C        2.422090    1.473176    7.713017 
C       -6.517340    3.510601   -3.182795 
C       -5.729308    2.304995   -5.157431 
C       -2.539448    5.136509   -5.649837 
C       -3.716205    3.127510   -6.406900 
C       -3.341973    6.369333   -3.625205 
C       -5.308054    5.565130   -2.402786 
C       -4.678527    4.483784   -4.551636 
C       -3.680546    4.285544   -5.576209 
C       -4.829645    2.229030   -6.274216 
C       -4.483186    5.511185   -3.562943 
C       -6.405997    4.643287   -2.305727 
C       -5.686376    3.467269   -4.333068 
C       -2.468029    6.255853   -4.755401 
C       -4.881138    6.299671   -1.235247 
C       -2.911701    7.097198   -2.458346 
C       -0.899999    7.911770    1.238076 
C       -0.900154    7.917248   -1.202913 
C       -2.911421    7.086154    2.490093 
C       -4.881001    6.294132    1.263721 
C       -2.998484    7.342775    0.016420 
C       -1.616659    7.787491    0.017331 
C       -1.610098    7.705488   -2.435226 
C       -3.621212    6.966683    1.257837 
C       -5.554127    6.103296    0.013835 
C       -3.621344    6.972230   -1.226542 
C       -1.609795    7.694530    2.469520 
C       -2.416511   -2.788030   -7.138957 
C       -1.148256   -4.743437   -6.391049 
C        2.538756   -2.677358   -7.139266 
C        1.359235   -4.687421   -6.391144 
C        1.239188   -0.675858   -7.907062 
C       -1.207727   -0.730580   -7.907086 
C        0.062817   -2.809304   -7.386259 
C        1.323552   -3.417125   -7.031853 
C        0.120604   -5.391627   -6.209739 
C        0.031894   -1.424992   -7.795644 
C       -2.422089   -1.473180   -7.713018 
C       -1.169470   -3.472779   -7.031644 
C        2.485548   -1.363437   -7.713167 
C       -1.240089    0.711070   -7.903836 
C        1.206825    0.765793   -7.903903 
C        1.147526    4.771885   -6.370125 
C        2.415695    2.819789   -7.126777 
C       -1.359970    4.715875   -6.370182 
C       -2.539572    2.709127   -7.127024 
C       -0.063661    2.842180   -7.373701 
C        1.168660    3.504074   -7.016301 
C        2.421209    1.507522   -7.706694 
C       -1.324350    3.448432   -7.016478 
C       -2.486424    1.397782   -7.706770 
C       -0.032783    1.459708   -7.789234 
C       -0.121316    5.419282   -6.185810 
C        0.899999   -7.911772   -1.238075 
C        0.900154   -7.917246    1.202914 
C        4.881138   -6.299669    1.235255 
C        2.911704   -7.097197    2.458351 
C        4.881001   -6.294134   -1.263713 
C        2.911419   -7.086155   -2.490088 
C        2.998484   -7.342775   -0.016418 
C        3.621341   -6.972232    1.226541 
C        1.610091   -7.705483    2.435228 
C        3.621215   -6.966681   -1.257838 
C        1.609803   -7.694535   -2.469518 
C        1.616659   -7.787491   -0.017330 
C        5.554127   -6.103296   -0.013839 
C        2.538771   -5.111240   -5.672803 
C        3.715487   -3.098951   -6.421141 
C        6.516983   -3.496364   -3.199074 
C        5.728730   -2.281988   -5.168279 
C        5.307766   -5.554349   -2.428037 
C        3.341538   -6.353069   -3.653733 
C        4.678011   -4.463428   -4.571997 
C        5.685888   -3.447935   -4.349066 
C        4.828953   -2.201082   -6.284603 
C        4.482771   -5.495243   -3.587803 
C        2.467447   -6.234536   -4.783307 
C        3.679906   -4.260641   -5.595576 
C        6.405707   -4.632926   -2.327017 
C        2.539445   -5.136511    5.649831 
C        3.716205   -3.127510    6.406895 
C        6.517339   -3.510601    3.182795 
C        5.729307   -2.304999    5.157429 
C        5.308049   -5.565131    2.402782 
C        3.341969   -6.369335    3.625201 
C        4.678522   -4.483786    4.551635 
C        5.686375   -3.467266    4.333070 
C        4.829636   -2.229029    6.274213 
C        4.483188   -5.511187    3.562949 
C        2.468028   -6.255857    4.755412 
C        3.680542   -4.285541    5.576206 
C        6.406003   -4.643287    2.305727 
C        7.106920    2.644429   -2.739757 
C        6.368976    1.408291   -4.716027 
C        7.218031   -2.311635   -2.750858 
C        6.425280   -1.101031   -4.721717 
C        7.964641   -1.047579   -0.723150 
C        7.909799    1.405975   -0.717695 
C        7.411411    0.172143   -2.818091 
C        7.076778   -1.084096   -3.454773 
C        6.213979    0.151054   -5.395965 
C        7.822774    0.178250   -1.444500 
C        7.687379    2.632786   -1.427905 
C        7.020790    1.415005   -3.449184 
C        7.797399   -2.279893   -1.438827 
C        6.353656    3.798628   -3.182791 
C        5.620475    2.558949   -5.157501 
C        2.306952    5.244631   -5.649660 
C        3.572440    3.290272   -6.406685 
C        3.053312    6.511974   -3.625071 
C        5.053555    5.796870   -2.402792 
C        4.472921    4.688205   -4.551416 
C        3.484885    4.445451   -5.575908 
C        4.725090    2.442688   -6.274277 
C        4.231799    5.705804   -3.562820 
C        6.191808    4.925231   -2.305776 
C        5.525459    3.718090   -4.333061 
C        2.185380    6.359547   -4.755212 
C        4.594327    6.511653   -1.235309 
C        2.590989    7.219888   -2.458305 
C        0.545053    7.943923    1.238045 
C        0.544925    7.949408   -1.202907 
C        2.591278    7.208846    2.489955 
C        4.594469    6.506098    1.263619 
C        2.666704    7.468941    0.016373 
C        1.266516    7.851643    0.017307 
C        1.263587    7.769575   -2.435186 
C        3.305638    7.121151    1.257714 
C        5.275582    6.345851    0.013758 
C        3.305479    7.126715   -1.226530 
C        1.263867    7.758623    2.469429 
C        5.053827    5.786079    2.427888 
C        3.053726    6.495713    3.653503 
C        3.573192    3.261728    6.420838 
C        2.307580    5.219372    5.672562 
C        5.621071    2.535942    5.168194 
C        6.354028    3.784393    3.198887 
C        4.473459    4.667855    4.571647 
C        3.485536    4.420566    5.595183 
C        2.185902    6.338236    4.783036 
C        5.525962    3.698762    4.348897 
C        6.192049    4.914868    2.326883 
C        4.232205    5.689858    3.587542 
C        4.725844    2.414750    6.284544 
C        7.107264    2.632192    2.750650 
C        6.369498    1.387263    4.721510 
C        7.218294   -2.323870    2.739756 
C        6.425814   -1.122059    4.716047 
C        7.964709   -1.050774    0.717583 
C        7.909896    1.402782    0.723043 
C        7.411718    0.159592    2.817984 
C        7.077152   -1.099509    3.449136 
C        6.214584    0.127024    5.395873 
C        7.822932    0.171821    1.444391 
C        7.687578    2.626400    1.438716 
C        7.021181    1.399591    3.454616 
C        7.797525   -2.286283    1.427801 
