78

C        4.285398   -0.718294   -1.170088 
C        3.441544   -1.154239   -2.269942 
C        4.244727   -1.415218    0.039221 
C        2.712178   -2.315881   -2.162668 
C        1.400034   -2.391066   -2.735478 
C        4.137638    0.692286    1.283979 
C        4.244741    1.415186    0.039243 
C        4.137631   -0.692336    1.283968 
C        4.285406    0.718279   -1.170076 
C        3.441556    1.154244   -2.269927 
C        3.420362    2.596244    0.164840 
C        2.713479    3.071005   -0.919001 
C        2.712204    2.315892   -2.162636 
C        2.834151    0.000009   -2.889029 
C        1.473699    0.000015   -3.314965 
C        0.733602   -1.259307   -3.270006 
C        1.179022    1.409510    3.410103 
C        2.377687    0.734223    3.056514 
C        3.226706    1.417928    2.157176 
C        1.465438    3.113206    1.639108 
C        0.728154    2.557961    2.707472 
C        2.780551    2.588968    1.461360 
C        2.377680   -0.734290    3.056503 
C        3.226693   -1.417987    2.157153 
C       -0.000002    0.685493    3.829565 
C       -0.000008   -0.685557    3.829553 
C        1.179009   -1.409576    3.410082 
C       -1.179018    1.409520    3.410099 
C       -2.377688    0.734243    3.056509 
C       -3.226695    1.417957    2.157168 
C       -1.465407    3.113217    1.639102 
C       -0.728135    2.557966    2.707471 
C       -2.780525    2.588992    1.461352 
C       -0.734380    3.667495    0.497293 
C        1.403055    3.648749   -0.748010 
C        0.734424    3.667489    0.497294 
C       -1.403009    3.648763   -0.748013 
C        0.728129   -2.558012    2.707434 
C        1.465408   -3.113242    1.639059 
C        2.780525   -2.589010    1.461319 
C        3.420337   -2.596272    0.164800 
C        2.713446   -3.071013   -0.919045 
C       -0.734423   -3.667499    0.497241 
C        0.734382   -3.667503    0.497241 
C        1.403014   -3.648749   -0.748062 
C       -1.403054   -3.648739   -0.748062 
C       -0.680832   -3.362850   -1.954526 
C        0.680796   -3.362855   -1.954526 
C       -0.728160   -2.558008    2.707433 
C       -2.780557   -2.588990    1.461318 
C       -1.465444   -3.113233    1.639060 
C       -2.377694   -0.734272    3.056499 
C       -1.179031   -1.409567    3.410080 
C       -3.226713   -1.417961    2.157149 
C       -4.244743   -1.415182    0.039217 
C       -3.420367   -2.596245    0.164796 
C       -2.713480   -3.070991   -0.919047 
C       -4.285405   -0.718255   -1.170093 
C       -4.244725    1.415224    0.039235 
C       -4.137632    0.692322    1.283969 
C       -4.137641   -0.692300    1.283961 
C       -4.285396    0.718317   -1.170084 
C       -2.712171    2.315917   -2.162639 
C       -2.713440    3.071032   -0.919006 
C       -3.420333    2.596275    0.164831 
C       -3.441537    1.154277   -2.269931 
C        0.680836    3.362877   -1.954480 
C       -1.400027    2.391105   -2.735445 
C       -0.680790    3.362884   -1.954481 
C       -2.712201   -2.315859   -2.162670 
C       -1.400057   -2.391053   -2.735477 
C       -0.733611   -1.259299   -3.270003 
C       -3.441553   -1.154209   -2.269946 
C       -2.834146    0.000035   -2.889030 
C       -1.473694    0.000030   -3.314964 
C       -0.733596    1.259350   -3.269987 
C        0.733616    1.259343   -3.269985 
C        1.400061    2.391091   -2.735443 
