24
1,3,7-Trimethylpurine-2,6-dione
N          1.58080        0.70270       -0.22790
C          1.70620       -0.73740       -0.21260
N          0.53400       -1.56710       -0.35030
C          0.32310        1.36000        0.02740
C         -0.81230        0.45530        0.08170
C         -0.69670       -0.93220       -0.06620
N         -2.18860        0.69900        0.27830
C         -2.85120       -0.52050        0.25320
N         -1.95370       -1.51880        0.04260
C          0.65680       -3.02740       -0.16750
O          2.81360       -1.25580       -0.16930
O          0.28490        2.57440        0.15910
C         -2.80960        2.00310        0.50320
C          2.83010        1.50040       -0.19680
H         -3.92710       -0.67870        0.37620
H          1.48230       -3.40460       -0.78650
H         -0.27080       -3.52040       -0.48680
H          0.85670       -3.29900        0.87880
H         -2.41230        2.74780       -0.20170
H         -2.60420        2.36210        1.52210
H         -3.89730        1.93440        0.36950
H          3.59590        1.03330       -0.83140
H          3.22490        1.57910        0.82550
H          2.64310        2.51300       -0.57930
