76

C       -0.156304   -2.487613    2.723144 
C       -1.490611   -2.052497    2.646360 
C       -2.312886   -2.729242    1.702437 
C       -3.490863   -2.092122    1.163424 
C       -3.850671   -0.839434    1.613047 
C       -0.694861    0.234830    3.359985 
C       -1.799940   -0.682217    3.046113 
C       -3.027546   -0.142985    2.593289 
C       -0.912798    1.611429    3.173366 
C       -2.138413    2.121860    2.641390 
C       -3.186701    1.262077    2.355713 
C        0.694850   -0.234763    3.359989 
C        1.799931    0.682274    3.046108 
C        0.912785   -1.611368    3.173392 
C        3.027534    0.143032    2.593299 
C       -3.972931   -1.449091   -1.152127 
C       -4.375831   -0.143469   -0.683393 
C       -3.589924   -2.427997   -0.239443 
C       -4.375837    0.143451    0.683368 
C       -3.972953    1.449068    1.152108 
C       -3.850671    0.839412   -1.613065 
C       -3.490871    2.092103   -1.163438 
C       -3.589943    2.427980    0.239423 
C       -1.813908   -3.207598   -1.740439 
C       -2.138380   -2.121874   -2.641395 
C       -2.490302   -3.318741   -0.538591 
C       -3.186678   -1.262094   -2.355730 
C       -3.027533    0.142966   -2.593307 
C       -0.912768   -1.611439   -3.173356 
C       -0.694842   -0.234834   -3.359977 
C       -1.799928    0.682204   -3.046117 
C       -1.490606    2.052488   -2.646364 
C       -0.156308    2.487611   -2.723145 
C       -2.312888    2.729231   -1.702441 
C        1.732900   -3.545635   -0.679553 
C        0.346202   -3.818379   -0.646769 
C       -0.390695   -3.424578   -1.796202 
C        0.156325   -2.487668   -2.723105 
C        1.490620   -2.052546   -2.646331 
C        2.312898   -2.729271   -1.702389 
C        3.850681   -0.839445   -1.613038 
C        3.490881   -2.092127   -1.163393 
C        0.912789    1.611380   -3.173388 
C        0.694863    0.234767   -3.359984 
C        1.799945   -0.682264   -3.046108 
C        3.027548   -0.143014   -2.593299 
C       -0.346182   -3.818364    0.646839 
C       -1.732874   -3.545637    0.679612 
C        2.490328   -3.318712    0.538654 
C        1.813930   -3.207545    1.740489 
C        0.390712   -3.424527    1.796267 
C        3.589942   -2.427970    0.239476 
C        2.138396   -2.121808    2.641432 
C        3.186687   -1.262031    2.355744 
C        3.972944   -1.449043    1.152143 
C        3.972934    1.449066   -1.152133 
C        4.375836    0.143459   -0.683381 
C        4.375831   -0.143434    0.683388 
C        3.589921    2.427989   -0.239467 
C        1.813913    3.207559   -1.740484 
C        2.138394    2.121824   -2.641427 
C        3.186689    1.262049   -2.355743 
C        2.490300    3.318727   -0.538640 
C       -1.732892    3.545622   -0.679618 
C       -0.346202    3.818365   -0.646835 
C        0.390701    3.424536   -1.796260 
C       -0.390725    3.424571    1.796212 
C       -1.813941    3.207581    1.740434 
C       -2.490330    3.318727    0.538586 
C        1.732872    3.545651    0.679563 
C        0.346174    3.818379    0.646779 
C        3.850667    0.839464    1.613046 
C        3.490858    2.092143    1.163404 
C        2.312874    2.729282    1.702403 
C        1.490596    2.052553    2.646337 
C        0.156291    2.487667    2.723112 
