98
C76
C          0.85521       -0.15878        5.10005
C         14.70740        5.18160        5.10044
C         13.16790        5.18061        5.10061
C          5.46681       10.51127        5.10007
C          7.77748        9.17959        5.10003
C         10.08815        7.84716        5.10022
C         12.39786        6.51391        5.10043
C          1.62614       -1.49161        5.09985
C          3.16575       -1.49055        5.09982
C          3.93579       -2.82387        5.09968
C          5.47551       -2.82378        5.09984
C          6.24576       -4.15728        5.09974
C          7.78572       -4.15663        5.09992
C          8.55657       -5.48960        5.09989
C         10.09642       -5.48827        5.10008
C         10.86700       -6.82122        5.10000
C         12.40683       -6.82031        5.10016
C         13.17612       -5.48650        5.10024
C         14.71595       -5.48602        5.10044
C          0.85244        2.50788        5.10026
C          1.62392        1.17524        5.10003
C          3.16377        1.17634        5.10005
C          3.93479       -0.15670        5.09992
C          5.47445       -0.15631        5.09982
C          6.24494       -1.48982        5.09990
C          7.78467       -1.48930        5.10006
C          8.55516       -2.82255        5.09999
C         10.09505       -2.82151        5.10015
C         10.86573       -4.15436        5.10038
C         12.40561       -4.15345        5.10044
C         14.71492       -2.81905        5.10018
C          0.84969        5.17512        5.10033
C          1.62089        3.84214        5.10010
C          3.16092        3.84318        5.10011
C          3.93228        2.51030        5.10020
C          5.47208        2.51097        5.10004
C          6.24315        1.17768        5.09985
C          7.78277        1.17813        5.09995
C          8.55365       -0.15524        5.10008
C         10.09337       -0.15455        5.10017
C         10.86425       -1.48761        5.10018
C         12.40414       -1.48681        5.10044
C         13.17496       -2.81973        5.10041
C         14.71301       -0.15214        5.10007
C          0.84828        7.84253        5.10039
C          1.61881        6.50919        5.10027
C          3.15886        6.50988        5.10021
C          3.92979        5.17704        5.10022
C          5.46978        5.17790        5.09999
C          6.24073        3.84489        5.09994
C          7.78045        3.84548        5.09995
C          8.55132        2.51213        5.10002
C         10.09093        2.51256        5.10011
C         10.86203        1.17935        5.10023
C         12.40179        1.17992        5.10029
C         13.17305       -0.15301        5.10041
C         14.71001        2.51473        5.10009
C          1.61801        9.17621        5.10036
C          3.15779        9.17650        5.10022
C          3.92832        7.84352        5.10019
C          5.46827        7.84448        5.10011
C          6.23901        6.51170        5.09991
C          7.77890        6.51261        5.10001
C          8.54940        5.17939        5.09994
C         10.08903        5.17984        5.10009
C         10.85955        3.84642        5.10018
C         12.39911        3.84678        5.10029
C         13.17023        2.51377        5.10016
C          3.92698       10.51024        5.10016
C          6.23757        9.17836        5.10010
C          8.54828        7.84659        5.10027
C         10.85829        6.51373        5.10015
C         15.47847        3.84881        5.10034
C         15.48551       -4.15226        5.10041
C         15.48408       -1.48513        5.10015
C         15.48151        1.18203        5.10010
H         -0.28483       -0.15964        5.10026
H         15.27650        6.16940        5.10031
H          6.03617       11.49880        5.10016
H          8.34681       10.16741        5.09969
H         10.65805        8.83479        5.10013
H         12.96784        7.50137        5.10046
H          1.05699       -2.47938        5.09984
H          3.36573       -3.81130        5.09940
H          5.67590       -5.14495        5.09928
H          7.98732       -6.47748        5.09979
H         10.29750       -7.80870        5.10015
H         12.97744       -7.80732        5.10071
H         15.28622       -6.47329        5.10053
H         -0.28775        2.50657        5.10068
H         -0.29047        5.17427        5.10057
H         -0.29166        7.84219        5.10048
H          1.04790       10.16357        5.10042
H          3.35628       11.49720        5.10038
H         16.61851        3.84981        5.10058
H         16.62544       -4.15176        5.10047
H         16.62423       -1.48437        5.10054
H         16.62168        1.18326        5.10042