242
C80H162
 C   -0.624500   -0.441900    0.000000
 C   -1.874000    0.441000    0.000000
 C   -3.122900   -0.442900    0.000000
 C   -4.372500    0.440000    0.000000
 C   -5.621400   -0.443800    0.000000
 C   -6.871000    0.439100    0.000000
 C   -8.119900   -0.444700    0.000000
 C   -9.369500    0.438100    0.000000
 C  -10.618400   -0.445700    0.000000
 C  -11.867900    0.437200    0.000000
 C  -13.116800   -0.446600    0.000000
 C  -14.366400    0.436300    0.000000
 C  -15.615300   -0.447600    0.000000
 C  -16.864901    0.435300    0.000000
 C  -18.113800   -0.448500    0.000000
 C  -19.363400    0.434400    0.000000
 C  -20.612301   -0.449400    0.000000
 C  -21.861900    0.433400    0.000000
 C  -23.110800   -0.450400    0.000000
 C  -24.360300    0.432500    0.000000
 C  -25.609200   -0.451300    0.000000
 C  -26.858801    0.431500    0.000000
 C  -28.107700   -0.452300    0.000000
 C  -29.357300    0.430600    0.000000
 C  -30.606199   -0.453200    0.000000
 C  -31.855801    0.429700    0.000000
 C  -33.104698   -0.454200    0.000000
 C  -34.354301    0.428700    0.000000
 C  -35.603199   -0.455100    0.000000
 C  -36.852699    0.427800    0.000000
 C  -38.101601   -0.456000    0.000000
 C  -39.351200    0.426800    0.000000
 C  -40.600101   -0.457000    0.000000
 C  -41.849701    0.425900    0.000000
 C  -43.098598   -0.457900    0.000000
 C  -44.348202    0.424900    0.000000
 C  -45.597099   -0.458900    0.000000
 C  -46.846699    0.424000    0.000000
 C  -48.095600   -0.459800    0.000000
 C  -49.345100    0.423100    0.000000
 C    0.624500    0.441900    0.000000
 C    1.874000   -0.441000    0.000000
 C    3.122900    0.442900    0.000000
 C    4.372500   -0.440000    0.000000
 C    5.621400    0.443800    0.000000
 C    6.871000   -0.439100    0.000000
 C    8.119900    0.444700    0.000000
 C    9.369500   -0.438100    0.000000
 C   10.618400    0.445700    0.000000
 C   11.867900   -0.437200    0.000000
 C   13.116800    0.446600    0.000000
 C   14.366400   -0.436300    0.000000
 C   15.615300    0.447600    0.000000
 C   16.864901   -0.435300    0.000000
 C   18.113800    0.448500    0.000000
 C   19.363400   -0.434400    0.000000
 C   20.612301    0.449400    0.000000
 C   21.861900   -0.433400    0.000000
 C   23.110800    0.450400    0.000000
 C   24.360300   -0.432500    0.000000
 C   25.609200    0.451300    0.000000
 C   26.858801   -0.431500    0.000000
 C   28.107700    0.452300    0.000000
 C   29.357300   -0.430600    0.000000
 C   30.606199    0.453200    0.000000
 C   31.855801   -0.429700    0.000000
 C   33.104698    0.454200    0.000000
 C   34.354301   -0.428700    0.000000
 C   35.603199    0.455100    0.000000
 C   36.852699   -0.427800    0.000000
 C   38.101601    0.456000    0.000000
 C   39.351200   -0.426800    0.000000
 C   40.600101    0.457000    0.000000
 C   41.849701   -0.425900    0.000000
 C   43.098598    0.457900    0.000000
 C   44.348202   -0.424900    0.000000
 C   45.597099    0.458900    0.000000
 C   46.846699   -0.424000    0.000000
 C   48.095600    0.459800    0.000000
 C   49.345100   -0.423100    0.000000
 H   -0.624200   -1.071200    0.890000
 H   -0.624200   -1.071200   -0.890000
 H   -1.874300    1.070300    0.890000
 H   -1.874300    1.070300   -0.890000
 H   -3.122700   -1.072200   -0.890000
 H   -3.122700   -1.072200    0.890000
 H   -4.372700    1.069300    0.890000
 H   -4.372700    1.069300   -0.890000
 H   -5.621200   -1.073100   -0.890000
 H   -5.621200   -1.073100    0.890000
 H   -6.871200    1.068400    0.890000
 H   -6.871200    1.068400   -0.890000
 H   -8.119700   -1.074000   -0.890000
 H   -8.119700   -1.074000    0.890000
 H   -9.369700    1.067500    0.890000
 H   -9.369700    1.067500   -0.890000
 H  -10.618100   -1.075000   -0.890000
 H  -10.618100   -1.075000    0.890000
 H  -11.868200    1.066500    0.890000
 H  -11.868200    1.066500   -0.890000
 H  -13.116600   -1.075900   -0.890000
 H  -13.116600   -1.075900    0.890000
 H  -14.366700    1.065600    0.890000
 H  -14.366700    1.065600   -0.890000
 H  -15.615100   -1.076900   -0.890000
 H  -15.615100   -1.076900    0.890000
 H  -16.865101    1.064600    0.890000
 H  -16.865101    1.064600   -0.890000
 H  -18.113600   -1.077800   -0.890000
 H  -18.113600   -1.077800    0.890000
 H  -19.363600    1.063700    0.890000
 H  -19.363600    1.063700   -0.890000
 H  -20.612101   -1.078800   -0.890000
 H  -20.612101   -1.078800    0.890000
 H  -21.862101    1.062700    0.890000
 H  -21.862101    1.062700   -0.890000
 H  -23.110500   -1.079700   -0.890000
 H  -23.110500   -1.079700    0.890000
 H  -24.360600    1.061800    0.890000
 H  -24.360600    1.061800   -0.890000
 H  -25.608999   -1.080600   -0.890000
 H  -25.608999   -1.080600    0.890000
 H  -26.859100    1.060900    0.890000
 H  -26.859100    1.060900   -0.890000
 H  -28.107500   -1.081600   -0.890000
 H  -28.107500   -1.081600    0.890000
 H  -29.357500    1.059900    0.890000
 H  -29.357500    1.059900   -0.890000
 H  -30.606001   -1.082500   -0.890000
 H  -30.606001   -1.082500    0.890000
 H  -31.856001    1.059000    0.890000
 H  -31.856001    1.059000   -0.890000
 H  -33.104401   -1.083500   -0.890000
 H  -33.104401   -1.083500    0.890000
 H  -34.354500    1.058000    0.890000
 H  -34.354500    1.058000   -0.890000
 H  -35.602901   -1.084400   -0.890000
 H  -35.602901   -1.084400    0.890000
 H  -36.853001    1.057100    0.890000
 H  -36.853001    1.057100   -0.890000
 H  -38.101398   -1.085400   -0.890000
 H  -38.101398   -1.085400    0.890000
 H  -39.351501    1.056100    0.890000
 H  -39.351501    1.056100   -0.890000
 H  -40.599899   -1.086300   -0.890000
 H  -40.599899   -1.086300    0.890000
 H  -41.849899    1.055200    0.890000
 H  -41.849899    1.055200   -0.890000
 H  -43.098400   -1.087200   -0.890000
 H  -43.098400   -1.087200    0.890000
 H  -44.348400    1.054300    0.890000
 H  -44.348400    1.054300   -0.890000
 H  -45.596802   -1.088200   -0.890000
 H  -45.596802   -1.088200    0.890000
 H  -46.846901    1.053300    0.890000
 H  -46.846901    1.053300   -0.890000
 H  -48.095299   -1.089100   -0.890000
 H  -48.095299   -1.089100    0.890000
 H  -50.234901   -0.206600    0.000000
 H  -49.345402    1.052400    0.890000
 H  -49.345402    1.052400   -0.890000
 H    0.624200    1.071200   -0.890000
 H    0.624200    1.071200    0.890000
 H    1.874300   -1.070300    0.890000
 H    1.874300   -1.070300   -0.890000
 H    3.122700    1.072200   -0.890000
 H    3.122700    1.072200    0.890000
 H    4.372700   -1.069300    0.890000
 H    4.372700   -1.069300   -0.890000
 H    5.621200    1.073100   -0.890000
 H    5.621200    1.073100    0.890000
 H    6.871200   -1.068400    0.890000
 H    6.871200   -1.068400   -0.890000
 H    8.119700    1.074000   -0.890000
 H    8.119700    1.074000    0.890000
 H    9.369700   -1.067500    0.890000
 H    9.369700   -1.067500   -0.890000
 H   10.618100    1.075000   -0.890000
 H   10.618100    1.075000    0.890000
 H   11.868200   -1.066500    0.890000
 H   11.868200   -1.066500   -0.890000
 H   13.116600    1.075900   -0.890000
 H   13.116600    1.075900    0.890000
 H   14.366700   -1.065600    0.890000
 H   14.366700   -1.065600   -0.890000
 H   15.615100    1.076900   -0.890000
 H   15.615100    1.076900    0.890000
 H   16.865101   -1.064600    0.890000
 H   16.865101   -1.064600   -0.890000
 H   18.113600    1.077800   -0.890000
 H   18.113600    1.077800    0.890000
 H   19.363600   -1.063700    0.890000
 H   19.363600   -1.063700   -0.890000
 H   20.612101    1.078800   -0.890000
 H   20.612101    1.078800    0.890000
 H   21.862101   -1.062700    0.890000
 H   21.862101   -1.062700   -0.890000
 H   23.110500    1.079700   -0.890000
 H   23.110500    1.079700    0.890000
 H   24.360600   -1.061800    0.890000
 H   24.360600   -1.061800   -0.890000
 H   25.608999    1.080600   -0.890000
 H   25.608999    1.080600    0.890000
 H   26.859100   -1.060900    0.890000
 H   26.859100   -1.060900   -0.890000
 H   28.107500    1.081600   -0.890000
 H   28.107500    1.081600    0.890000
 H   29.357500   -1.059900    0.890000
 H   29.357500   -1.059900   -0.890000
 H   30.606001    1.082500   -0.890000
 H   30.606001    1.082500    0.890000
 H   31.856001   -1.059000    0.890000
 H   31.856001   -1.059000   -0.890000
 H   33.104401    1.083500   -0.890000
 H   33.104401    1.083500    0.890000
 H   34.354500   -1.058000    0.890000
 H   34.354500   -1.058000   -0.890000
 H   35.602901    1.084400   -0.890000
 H   35.602901    1.084400    0.890000
 H   36.853001   -1.057100    0.890000
 H   36.853001   -1.057100   -0.890000
 H   38.101398    1.085400   -0.890000
 H   38.101398    1.085400    0.890000
 H   39.351501   -1.056100    0.890000
 H   39.351501   -1.056100   -0.890000
 H   40.599899    1.086300   -0.890000
 H   40.599899    1.086300    0.890000
 H   41.849899   -1.055200    0.890000
 H   41.849899   -1.055200   -0.890000
 H   43.098400    1.087200   -0.890000
 H   43.098400    1.087200    0.890000
 H   44.348400   -1.054300    0.890000
 H   44.348400   -1.054300   -0.890000
 H   45.596802    1.088200   -0.890000
 H   45.596802    1.088200    0.890000
 H   46.846901   -1.053300    0.890000
 H   46.846901   -1.053300   -0.890000
 H   48.095299    1.089100   -0.890000
 H   48.095299    1.089100    0.890000
 H   49.345402   -1.052400    0.890000
 H   49.345402   -1.052400   -0.890000
 H   50.234901    0.206600    0.000000
